32
model 2
P       2.96102      0.27392     -0.77227
C       3.94864      0.34567      0.78360
C       1.76140      1.68621     -0.59363
C       0.90351      1.72763      0.67998
P      -0.18654      0.25842      1.04616
C      -1.36753      0.22091     -0.41427
C      -2.23538     -1.04163     -0.47019
C      -3.61368     -0.62977     -0.00418
C      -3.75208      0.77990     -0.52701
C      -2.37480      1.38412     -0.33663
C       0.99048     -1.16610      0.77867
C       1.83103     -1.17321     -0.50228
H       3.33499      0.44130      1.68322
H       4.55092     -0.56352      0.88969
H       4.63329      1.19516      0.75634
H       1.11599      1.68377     -1.47300
H       2.33859      2.61224     -0.64852
H       0.26314      2.61588      0.63278
H       1.54694      1.88055      1.54669
H      -0.79041      0.29021     -1.33871
H      -2.30614     -1.38412     -1.51237
H      -1.85629     -1.89067      0.11061
H      -4.39919     -1.29181     -0.37705
H      -3.66176     -0.63123      1.09436
H      -4.00776      0.75877     -1.59588
H      -4.53291      1.34296     -0.00977
H      -2.34903      1.90387      0.63123
H      -2.17297      2.14097     -1.09705
H       1.64956     -1.20772      1.64581
H       0.40950     -2.09378      0.81221
H       1.17709     -1.25158     -1.37173
H       2.44967     -2.07944     -0.50622
