
  Mrv0541 05191616053D          

 48 46  0  0  0  0            999 V2000
   -3.4705   -3.4918   -0.2021 C   0  0  2  0  0  0  0  0  0  0  0  0
   -2.0312   -4.0022   -0.3745 C   0  0  2  0  0  0  0  0  0  0  0  0
   -1.3169   -2.7582   -0.9021 C   0  0  1  0  0  0  0  0  0  0  0  0
   -1.9640   -1.5786   -0.1652 C   0  0  2  0  0  0  0  0  0  0  0  0
   -3.2483   -2.1343    0.4644 C   0  0  2  0  0  0  0  0  0  0  0  0
   -4.1933   -4.3722    0.7144 N   0  0  2  0  0  0  0  0  0  0  0  0
    0.0615   -2.8263   -0.5680 O   0  0  0  0  0  0  0  0  0  0  0  0
    5.2511   -2.7658    0.3890 C   0  0  0  0  0  0  0  0  0  0  0  0
    5.5298   -3.6890    1.4449 C   0  0  0  0  0  0  0  0  0  0  0  0
    4.6633   -3.1890   -0.7265 C   0  0  0  0  0  0  0  0  0  0  0  0
    4.3846   -2.2659   -1.7824 C   0  0  0  0  0  0  0  0  0  0  0  0
    5.6046   -1.3876    0.5323 C   0  0  2  0  0  0  0  0  0  0  0  0
    4.2643   -0.5114    1.2555 Cl  0  0  0  0  0  0  0  0  0  0  0  0
   -2.5390    5.0780    0.0000 Si  0  0  2  0  0  0  0  0  0  0  0  0
   -0.8420    5.0780    0.0000 H   0  0  0  0  0  0  0  0  0  0  0  0
   -3.1046    6.6779    0.0000 O   0  0  0  0  0  0  0  0  0  0  0  0
   -3.1046    4.2780   -1.3856 C   0  0  0  0  0  0  0  0  0  0  0  0
   -3.1046    4.2780    1.3856 Cl  0  0  0  0  0  0  0  0  0  0  0  0
   -2.3220   -0.4831   -1.1715 C   0  0  0  0  0  0  0  0  0  0  0  0
   -3.0355   -2.3325    1.9666 C   0  0  0  0  0  0  0  0  0  0  0  0
   -3.9022   -3.3596   -1.1942 H   0  0  0  0  0  0  0  0  0  0  0  0
   -2.0111   -4.7827   -1.1351 H   0  0  0  0  0  0  0  0  0  0  0  0
   -1.5904   -4.3064    0.5748 H   0  0  0  0  0  0  0  0  0  0  0  0
   -1.4820   -2.6395   -1.9730 H   0  0  0  0  0  0  0  0  0  0  0  0
   -1.3123   -1.2153    0.6294 H   0  0  0  0  0  0  0  0  0  0  0  0
   -4.0988   -1.4636    0.3423 H   0  0  0  0  0  0  0  0  0  0  0  0
   -4.2114   -5.3202    0.3329 H   0  0  0  0  0  0  0  0  0  0  0  0
   -5.1505   -4.0329    0.8290 H   0  0  0  0  0  0  0  0  0  0  0  0
    0.5195   -2.0287   -0.9063 H   0  0  0  0  0  0  0  0  0  0  0  0
    5.0072   -3.3757    2.3487 H   0  0  0  0  0  0  0  0  0  0  0  0
    5.1917   -4.6842    1.1561 H   0  0  0  0  0  0  0  0  0  0  0  0
    6.6029   -3.7107    1.6348 H   0  0  0  0  0  0  0  0  0  0  0  0
    4.4186   -4.1432   -0.8257 H   0  0  0  0  0  0  0  0  0  0  0  0
    3.3115   -2.2441   -1.9723 H   0  0  0  0  0  0  0  0  0  0  0  0
    4.7227   -1.2707   -1.4936 H   0  0  0  0  0  0  0  0  0  0  0  0
    4.9072   -2.5791   -2.6862 H   0  0  0  0  0  0  0  0  0  0  0  0
    5.8278   -0.9659   -0.4477 H   0  0  0  0  0  0  0  0  0  0  0  0
    6.4823   -1.3023    1.1730 H   0  0  0  0  0  0  0  0  0  0  0  0
   -2.7413    7.1917   -0.8900 H   0  0  0  0  0  0  0  0  0  0  0  0
   -4.1946    4.2780   -1.3856 H   0  0  0  0  0  0  0  0  0  0  0  0
   -2.7413    3.2503   -1.3856 H   0  0  0  0  0  0  0  0  0  0  0  0
   -2.7413    4.7918   -2.2756 H   0  0  0  0  0  0  0  0  0  0  0  0
   -2.7818    0.3551   -0.6479 H   0  0  0  0  0  0  0  0  0  0  0  0
   -3.0218   -0.8799   -1.9070 H   0  0  0  0  0  0  0  0  0  0  0  0
   -1.4176   -0.1439   -1.6765 H   0  0  0  0  0  0  0  0  0  0  0  0
   -3.9478   -2.7272    2.4138 H   0  0  0  0  0  0  0  0  0  0  0  0
   -2.7891   -1.3762    2.4279 H   0  0  0  0  0  0  0  0  0  0  0  0
   -2.2181   -3.0352    2.1281 H   0  0  0  0  0  0  0  0  0  0  0  0
  1  2  1  0  0  0  0
  1  5  1  0  0  0  0
  2  3  1  0  0  0  0
  3  4  1  0  0  0  0
  4  5  1  0  0  0  0
  1  6  1  0  0  0  0
  3  7  1  0  0  0  0
  8  9  1  0  0  0  0
  8 10  2  0  0  0  0
 10 11  1  0  0  0  0
  8 12  1  0  0  0  0
 12 13  1  0  0  0  0
 14 15  1  0  0  0  0
 14 16  1  0  0  0  0
 14 17  1  0  0  0  0
 14 18  1  0  0  0  0
  4 19  1  0  0  0  0
  5 20  1  0  0  0  0
  1 21  1  0  0  0  0
  2 22  1  0  0  0  0
  2 23  1  0  0  0  0
  3 24  1  0  0  0  0
  4 25  1  0  0  0  0
  5 26  1  0  0  0  0
  6 27  1  0  0  0  0
  6 28  1  0  0  0  0
  7 29  1  0  0  0  0
  9 30  1  0  0  0  0
  9 31  1  0  0  0  0
  9 32  1  0  0  0  0
 10 33  1  0  0  0  0
 11 34  1  0  0  0  0
 11 35  1  0  0  0  0
 11 36  1  0  0  0  0
 12 37  1  0  0  0  0
 12 38  1  0  0  0  0
 16 39  1  0  0  0  0
 17 40  1  0  0  0  0
 17 41  1  0  0  0  0
 17 42  1  0  0  0  0
 19 43  1  0  0  0  0
 19 44  1  0  0  0  0
 19 45  1  0  0  0  0
 20 46  1  0  0  0  0
 20 47  1  0  0  0  0
 20 48  1  0  0  0  0
M  END
$$$$

  Mrv0541 05191616053D          

 32 34  0  0  0  0            999 V2000
    3.8985   -2.7832    1.1072 O   0  0  0  0  0  0  0  0  0  0  0  0
    4.3111   -1.8007    0.1527 C   0  0  1  0  0  0  0  0  0  0  0  0
    3.2000   -0.7658    0.0339 C   0  0  2  0  0  0  0  0  0  0  0  0
    2.0253   -1.4938    0.6661 C   0  0  2  0  0  0  0  0  0  0  0  0
    2.4958   -2.9521    0.8622 C   0  0  2  0  0  0  0  0  0  0  0  0
    2.9239   -0.5232   -1.3377 O   0  0  0  0  0  0  0  0  0  0  0  0
    5.5914   -1.1205    0.6419 C   0  0  2  0  0  0  0  0  0  0  0  0
    6.6155   -2.0924    0.7936 O   0  0  0  0  0  0  0  0  0  0  0  0
    1.9161   -3.7459    1.9161 N   0  0  0  0  0  0  0  0  0  0  0  0
    1.6209   -6.7447    3.7313 C   0  0  0  0  0  0  0  0  0  0  0  0
    2.5365   -7.5421    3.0999 N   0  0  0  0  0  0  0  0  0  0  0  0
    3.3186   -7.1352    2.0451 C   0  0  0  0  0  0  0  0  0  0  0  0
    3.1844   -5.8496    1.5828 N   0  0  0  0  0  0  0  0  0  0  0  0
    2.2735   -5.0218    2.1792 C   0  0  0  0  0  0  0  0  0  0  0  0
    0.6564   -4.4494    3.6306 N   0  0  0  0  0  0  0  0  0  0  0  0
    1.4751   -5.4309    3.2523 C   0  0  0  0  0  0  0  0  0  0  0  0
    0.9290   -3.4245    2.8034 C   0  0  0  0  0  0  0  0  0  0  0  0
    0.9431   -7.1665    4.6932 O   0  0  0  0  0  0  0  0  0  0  0  0
    4.1946   -7.9768    1.4794 N   0  0  2  0  0  0  0  0  0  0  0  0
    4.4494   -2.2642   -0.8241 H   0  0  0  0  0  0  0  0  0  0  0  0
    3.3973    0.1563    0.5806 H   0  0  0  0  0  0  0  0  0  0  0  0
    1.1760   -1.4748   -0.0169 H   0  0  0  0  0  0  0  0  0  0  0  0
    1.8197   -1.0538    1.6419 H   0  0  0  0  0  0  0  0  0  0  0  0
    2.3097   -3.4901   -0.0850 H   0  0  0  0  0  0  0  0  0  0  0  0
    2.2090    0.1427   -1.4142 H   0  0  0  0  0  0  0  0  0  0  0  0
    5.4029   -0.6385    1.6012 H   0  0  0  0  0  0  0  0  0  0  0  0
    5.9058   -0.3719   -0.0853 H   0  0  0  0  0  0  0  0  0  0  0  0
    7.4355   -1.6568    1.1070 H   0  0  0  0  0  0  0  0  0  0  0  0
    2.6402   -8.4530    3.4169 H   0  0  0  0  0  0  0  0  0  0  0  0
    0.4575   -2.5205    2.8347 H   0  0  0  0  0  0  0  0  0  0  0  0
    4.6564   -7.5247    0.7561 H   0  0  0  0  0  0  0  0  0  0  0  0
    3.7220   -8.7481    1.1293 H   0  0  0  0  0  0  0  0  0  0  0  0
  1  2  1  0  0  0  0
  1  5  1  0  0  0  0
  2  3  1  0  0  0  0
  2  7  1  0  0  0  0
  3  4  1  0  0  0  0
  3  6  1  0  0  0  0
  5  4  1  0  0  0  0
  5  9  1  0  0  0  0
  7  8  1  0  0  0  0
 14  9  1  0  0  0  0
  9 17  1  0  0  0  0
 10 11  1  0  0  0  0
 10 16  1  0  0  0  0
 10 18  2  0  0  0  0
 11 12  1  0  0  0  0
 12 13  2  0  0  0  0
 12 19  1  0  0  0  0
 13 14  1  0  0  0  0
 16 14  2  0  0  0  0
 15 16  1  0  0  0  0
 15 17  2  0  0  0  0
  2 20  1  0  0  0  0
  3 21  1  0  0  0  0
  4 22  1  0  0  0  0
  4 23  1  0  0  0  0
  5 24  1  0  0  0  0
  6 25  1  0  0  0  0
  7 26  1  0  0  0  0
  7 27  1  0  0  0  0
  8 28  1  0  0  0  0
 11 29  1  0  0  0  0
 17 30  1  0  0  0  0
 19 31  1  0  0  0  0
 19 32  1  0  0  0  0
M  END
$$$$

  Mrv0541 05191616053D          

 17 16  0  0  0  0            999 V2000
    0.0000    0.0000    0.0000 Si  0  0  1  0  0  0  0  0  0  0  0  0
    1.6970    0.0000    0.0000 C   0  0  0  0  0  0  0  0  0  0  0  0
   -0.7123    2.0148    0.0000 Ge  0  0  0  0  0  0  0  0  0  0  0  0
   -0.7667   -1.0842   -1.8779 Sn  0  0  0  0  0  0  0  0  0  0  0  0
   -0.6213   -0.8787    1.5219 Si  0  0  0  0  0  0  0  0  0  0  0  0
   -2.2423    2.0148    0.0000 H   0  0  0  0  0  0  0  0  0  0  0  0
   -2.4597   -1.0842   -1.8779 H   0  0  0  0  0  0  0  0  0  0  0  0
   -0.2023   -2.6804   -1.8779 H   0  0  0  0  0  0  0  0  0  0  0  0
   -0.2023   -0.2861   -3.2603 H   0  0  0  0  0  0  0  0  0  0  0  0
   -0.2023    2.7360   -1.2492 H   0  0  0  0  0  0  0  0  0  0  0  0
   -0.2023    2.7360    1.2492 H   0  0  0  0  0  0  0  0  0  0  0  0
    2.0603   -1.0277    0.0000 H   0  0  0  0  0  0  0  0  0  0  0  0
    2.0603    0.5138   -0.8900 H   0  0  0  0  0  0  0  0  0  0  0  0
    2.0603    0.5138    0.8900 H   0  0  0  0  0  0  0  0  0  0  0  0
   -1.8783   -0.8787    1.5219 H   0  0  0  0  0  0  0  0  0  0  0  0
   -0.2023   -2.0638    1.5219 H   0  0  0  0  0  0  0  0  0  0  0  0
   -0.2023   -0.2861    2.5483 H   0  0  0  0  0  0  0  0  0  0  0  0
  1  2  1  0  0  0  0
  1  3  1  0  0  0  0
  1  4  1  0  0  0  0
  1  5  1  0  0  0  0
  3  6  1  0  0  0  0
  4  7  1  0  0  0  0
  4  8  1  0  0  0  0
  4  9  1  0  0  0  0
  3 10  1  0  0  0  0
  3 11  1  0  0  0  0
  2 12  1  0  0  0  0
  2 13  1  0  0  0  0
  2 14  1  0  0  0  0
  5 15  1  0  0  0  0
  5 16  1  0  0  0  0
  5 17  1  0  0  0  0
M  END
$$$$
