55
M00000075_X1
C         -0.53340        3.12800       -2.34330
C         -0.53340        3.12800       -0.83670
H          0.47940        3.12800       -2.75690
H         -1.07260        4.02430       -2.69190
H         -1.06910        2.25740       -2.74980
Ru         0.21450        1.17870       -0.16680
C          0.54710        3.54510       -0.03770
H         -1.51840        3.20430       -0.36510
C          1.39060        1.71650        1.11580
C          0.02790       -0.84790       -0.15990
O         -1.42370        1.27610        1.32240
O          1.88040        1.19050       -1.62750
H          1.06460        1.89260        2.15020
H          2.45810        1.84530        0.88570
C         -0.37930       -1.44270       -1.51610
N          0.14190       -1.58140        0.94540
C         -0.50390       -0.30580       -2.54910
C          0.68520       -2.43150       -2.02970
C         -1.75840       -2.12480       -1.37710
H         -1.29690        0.41710       -2.29480
H         -0.74530       -0.69500       -3.54270
H          0.47350        0.24590       -2.66900
H          0.48730       -2.72530       -3.06570
H          0.73410       -3.34990       -1.43250
H          1.68260       -1.94950       -2.01060
H         -1.70380       -3.09320       -0.87400
H         -2.21310       -2.29880       -2.35810
H         -2.44580       -1.48010       -0.80150
C          0.14530       -3.08650        1.05250
C          0.27070       -0.87090        2.24930
C         -1.05190       -3.57280        1.87460
C          1.47410       -3.56820        1.64390
H          0.05590       -3.51110        0.00870
H         -0.97490       -3.29070        2.93250
H         -1.13550       -4.66480        1.83610
H         -1.99570       -3.15160        1.50390
H          1.61250       -3.24970        2.68370
H          2.33100       -3.18920        1.07300
H          1.52920       -4.66340        1.63390
H         -0.47450        0.00340        2.26350
H          1.29010       -0.48410        2.39160
H          0.01190       -1.51960        3.09590
C         -2.57690        0.86560        0.66630
H         -2.79330        1.53030       -0.18680
H         -3.41110        0.91340        1.38080
H         -2.47590       -0.17380        0.29520
C          2.87240        0.28430       -1.28980
H          3.69040        0.39990       -2.01660
H          2.48820       -0.75420       -1.34090
H          3.26130        0.47600       -0.27720
C          0.30230        4.30210        1.24610
H          1.50100        3.70300       -0.54770
H          1.18290        4.32270        1.89910
H          0.05160        5.34360        0.99360
H         -0.54280        3.86830        1.79510
