55
Coordinates from ORCA-job mo_job2
  C   0.33192219911990      3.06826169810522     -2.60767584825347
  C   -0.23916768043012      3.02795322275008     -1.21345126471389
  H   1.28680606639134      2.53949424564294     -2.63356978706968
  H   0.50403482388859      4.10608110193991     -2.90111510682691
  H   -0.34741059303717      2.62379895120547     -3.33299832556447
  Ru  0.16453201197578      1.09551254360503     -0.18188926775689
  C   0.48208645624013      3.52634137536437     -0.13743439259090
  H   -1.32905536933465      3.11952263807675     -1.13893141748842
  C   1.26606527682556      1.69849417948535      1.21722898145843
  C   -0.08677232087103     -0.84027815408258     -0.07096879064892
  O   -1.53146278376568      1.52858976159185      1.06387250291287
  O   1.87772141064570      0.88143603712807     -1.44043810320757
  H   0.88540134282806      2.01968750907853      2.18828626438760
  H   2.34851981027710      1.81995999094746      1.12714047359771
  C   -0.59826444976593     -1.37283595314888     -1.40727316206834
  N   0.11377137210657     -1.61669121182553      0.97849245694543
  C   -0.90637345728017     -0.11566131740808     -2.25235495066001
  C   0.45957156554957     -2.16718083198235     -2.19323786050116
  C   -1.90769949141538     -2.17081120122301     -1.27101453193048
  H   -1.43381132896631      0.63542275775530     -1.63739756142387
  H   -1.55260632591035     -0.36862151863649     -3.09392581475622
  H   0.02599443039213      0.29261710686062     -2.64741433485783
  H   0.10303886127632     -2.32352498365625     -3.21025613329843
  H   0.68364747731349     -3.14138599750323     -1.76734449692157
  H   1.37909822036846     -1.58950248408037     -2.23582305282651
  H   -1.77336167721896     -3.14616796602385     -0.81404664959637
  H   -2.33570574553807     -2.33012213327070     -2.25986782300638
  H   -2.62547581773206     -1.60983651886585     -0.67601869767927
  C   0.19465672665835     -3.07709787492257      1.00892126816787
  C   0.40098964657917     -0.97570653861884      2.25213734072866
  C   -0.87964696031262     -3.69017023751287      1.91268307148122
  C   1.59992014389495     -3.52177550842774      1.42007701117392
  H   0.02433579407622     -3.43848990483907     -0.00185874969699
  H   -0.63699731045014     -3.58293744236137      2.96644189960629
  H   -0.96902552079569     -4.75285598941756      1.69963084907593
  H   -1.84203827939935     -3.21851660098875      1.73014270026206
  H   1.81484411106009     -3.27048935418037      2.45466761859350
  H   2.34168850668390     -3.04281249794905      0.78489400876090
  H   1.68890466410710     -4.59934550284502      1.30468975913316
  H   -0.25184029747890     -0.10905825559279      2.36256753670434
  H   1.44042247237670     -0.63648827872474      2.28522233901567
  H   0.21872576596293     -1.66958127281257      3.06701180673688
  C   -2.71548935364681      0.86051693403825      0.95036939476731
  H   -3.19140347018321      0.95038890647868     -0.04992999272473
  H   -3.43396190616888      1.28007182265215      1.67690736627549
  H   -2.62822626236178     -0.22298929153226      1.17615805558930
  C   3.03086030858475      0.25274710251971     -1.05672038628515
  H   3.57760962108909     -0.07815541419337     -1.95924389190742
  H   2.85249622333828     -0.64243990771727     -0.42951194164517
  H   3.71831195571862      0.91167297945672     -0.49389293418938
  C   -0.21447019387594      4.21474006985167      1.00285840825294
  H   1.51902511403733      3.80462596125120     -0.32124678839292
  H   0.46841832527982      4.44833928102691      1.81519655805117
  H   -0.64552934935119      5.15084629713677      0.64062390955432
  H   -1.01922475935562      3.57830767039437      1.37393047725637
