6
methanol
O          1.05635        0.07989        0.02951
C          2.47206        0.06917        0.02948
H          0.76341       -0.84727        0.02776
H          2.83518        1.09967        0.03142
H          2.83356       -0.44043       -0.86703
H          2.83356       -0.44380        0.92408
