t102-mol
  Mrv0541 11221717223D          

123129  0  0  0  0            999 V2000
    5.4298   12.3454   14.7212 Ru  0  0  0  0  0  0  0  0  0  0  0  0
    7.3710   12.8968   16.1386 Cl  0  0  0  0  0  0  0  0  0  0  0  0
    4.1935   13.2472   16.6489 Cl  0  0  0  0  0  0  0  0  0  0  0  0
    3.3740   11.8910   13.6130 Cl  0  0  0  0  0  0  0  0  0  0  0  0
    5.6592   10.6018   15.0614 C   0  0  0  0  0  0  0  0  0  0  0  0
    6.5335   10.1991   15.6012 H   0  0  0  0  0  0  0  0  0  0  0  0
    4.8868    9.8660   14.7818 H   0  0  0  0  0  0  0  0  0  0  0  0
    6.4978   12.3545   13.0252 C   0  0  0  0  0  0  0  0  0  0  0  0
    7.2996   11.4316   12.4536 N   0  0  0  0  0  0  0  0  0  0  0  0
    7.5233   10.1154   12.9602 C   0  0  0  0  0  0  0  0  0  0  0  0
    8.6445    9.8906   13.7734 C   0  0  0  0  0  0  0  0  0  0  0  0
    8.7824    8.6369   14.3675 C   0  0  0  0  0  0  0  0  0  0  0  0
    9.6350    8.4562   15.0272 H   0  0  0  0  0  0  0  0  0  0  0  0
    7.8450    7.6196   14.1646 C   0  0  0  0  0  0  0  0  0  0  0  0
    6.7812    7.8596   13.2937 C   0  0  0  0  0  0  0  0  0  0  0  0
    6.0522    7.0670   13.1068 H   0  0  0  0  0  0  0  0  0  0  0  0
    6.5996    9.0997   12.6759 C   0  0  0  0  0  0  0  0  0  0  0  0
    5.4140    9.3582   11.7863 C   0  0  0  0  0  0  0  0  0  0  0  0
    4.7430   10.1140   12.2273 H   0  0  0  0  0  0  0  0  0  0  0  0
    4.8366    8.4372   11.6304 H   0  0  0  0  0  0  0  0  0  0  0  0
    5.7251    9.7295   10.7974 H   0  0  0  0  0  0  0  0  0  0  0  0
    7.9620    6.3143   14.9053 C   0  0  0  0  0  0  0  0  0  0  0  0
    9.0122    6.0081   15.0186 H   0  0  0  0  0  0  0  0  0  0  0  0
    7.5320    6.4143   15.9156 H   0  0  0  0  0  0  0  0  0  0  0  0
    7.4194    5.5080   14.3918 H   0  0  0  0  0  0  0  0  0  0  0  0
    9.6354   10.9892   14.0462 C   0  0  0  0  0  0  0  0  0  0  0  0
   10.4986   10.6059   14.6063 H   0  0  0  0  0  0  0  0  0  0  0  0
    9.1717   11.7873   14.6452 H   0  0  0  0  0  0  0  0  0  0  0  0
   10.0102   11.4424   13.1154 H   0  0  0  0  0  0  0  0  0  0  0  0
    7.8237   11.8720   11.1580 C   0  0  2  0  0  0  0  0  0  0  0  0
    7.3099   11.3395   10.3409 H   0  0  0  0  0  0  0  0  0  0  0  0
    8.8995   11.6650   11.0806 H   0  0  0  0  0  0  0  0  0  0  0  0
    7.5004   13.3690   11.1655 C   0  0  1  0  0  0  0  0  0  0  0  0
    8.3833   13.9883   11.3982 H   0  0  0  0  0  0  0  0  0  0  0  0
    7.0708   13.7198   10.2175 H   0  0  0  0  0  0  0  0  0  0  0  0
    6.5241   13.4604   12.2499 N   0  0  0  0  0  0  0  0  0  0  0  0
    5.8847   14.6840   12.6296 C   0  0  0  0  0  0  0  0  0  0  0  0
    6.5194   15.5593   13.5232 C   0  0  0  0  0  0  0  0  0  0  0  0
    5.8187   16.6979   13.9322 C   0  0  0  0  0  0  0  0  0  0  0  0
    6.2966   17.3747   14.6424 H   0  0  0  0  0  0  0  0  0  0  0  0
    4.5431   16.9878   13.4563 C   0  0  0  0  0  0  0  0  0  0  0  0
    3.9749   16.1335   12.5058 C   0  0  0  0  0  0  0  0  0  0  0  0
    2.9895   16.3662   12.0946 H   0  0  0  0  0  0  0  0  0  0  0  0
    4.6288   14.9845   12.0694 C   0  0  0  0  0  0  0  0  0  0  0  0
    4.0197   14.0946   11.0221 C   0  0  0  0  0  0  0  0  0  0  0  0
    3.0782   14.5212   10.6513 H   0  0  0  0  0  0  0  0  0  0  0  0
    3.8066   13.1011   11.4427 H   0  0  0  0  0  0  0  0  0  0  0  0
    4.6972   13.9700   10.1624 H   0  0  0  0  0  0  0  0  0  0  0  0
    3.7836   18.1877   13.9591 C   0  0  0  0  0  0  0  0  0  0  0  0
    4.4597   18.9465   14.3790 H   0  0  0  0  0  0  0  0  0  0  0  0
    3.0777   17.8920   14.7528 H   0  0  0  0  0  0  0  0  0  0  0  0
    3.1952   18.6581   13.1579 H   0  0  0  0  0  0  0  0  0  0  0  0
    7.9368   15.3636   13.9924 C   0  0  0  0  0  0  0  0  0  0  0  0
    8.0284   15.5956   15.0622 H   0  0  0  0  0  0  0  0  0  0  0  0
    8.2924   14.3358   13.8552 H   0  0  0  0  0  0  0  0  0  0  0  0
    8.6067   16.0404   13.4362 H   0  0  0  0  0  0  0  0  0  0  0  0
    6.0615   12.9286   18.2397 Ru  0  0  2  0  0  0  0  0  0  0  0  0
    8.0876   12.8089   19.4807 Cl  0  0  0  0  0  0  0  0  0  0  0  0
    5.6643   11.1672   18.3528 C   0  0  0  0  0  0  0  0  0  0  0  0
    4.6168   10.8524   18.2020 H   0  0  0  0  0  0  0  0  0  0  0  0
    6.6593   10.0534   18.4966 C   0  0  2  0  0  0  0  0  0  0  0  0
    7.1256   10.1482   19.4921 H   0  0  0  0  0  0  0  0  0  0  0  0
    7.4946   10.2642   17.8035 H   0  0  0  0  0  0  0  0  0  0  0  0
    6.1720    8.6365   18.2764 C   0  0  0  0  0  0  0  0  0  0  0  0
    6.8711    7.5789   18.8718 C   0  0  0  0  0  0  0  0  0  0  0  0
    7.7191    7.8025   19.5241 H   0  0  0  0  0  0  0  0  0  0  0  0
    6.5097    6.2529   18.6415 C   0  0  0  0  0  0  0  0  0  0  0  0
    7.0739    5.4471   19.1156 H   0  0  0  0  0  0  0  0  0  0  0  0
    5.4305    5.9563   17.8081 C   0  0  0  0  0  0  0  0  0  0  0  0
    5.1449    4.9191   17.6231 H   0  0  0  0  0  0  0  0  0  0  0  0
    4.7174    6.9994   17.2208 C   0  0  0  0  0  0  0  0  0  0  0  0
    3.8667    6.7849   16.5711 H   0  0  0  0  0  0  0  0  0  0  0  0
    5.0842    8.3246   17.4550 Si  0  0  0  0  0  0  0  0  0  0  0  0
    4.5059    9.1213   16.9850 H   0  0  0  0  0  0  0  0  0  0  0  0
    5.0178   13.5451   19.8375 C   0  0  0  0  0  0  0  0  0  0  0  0
    5.0044   14.8576   20.1729 N   0  0  0  0  0  0  0  0  0  0  0  0
    5.5517   15.8890   19.3440 C   0  0  0  0  0  0  0  0  0  0  0  0
    6.8316   16.3913   19.6448 C   0  0  0  0  0  0  0  0  0  0  0  0
    7.3742   17.3531   18.7950 C   0  0  0  0  0  0  0  0  0  0  0  0
    8.3750   17.7376   19.0078 H   0  0  0  0  0  0  0  0  0  0  0  0
    6.6708   17.8423   17.6904 C   0  0  0  0  0  0  0  0  0  0  0  0
    5.3750   17.3803   17.4701 C   0  0  0  0  0  0  0  0  0  0  0  0
    4.7925   17.7816   16.6379 H   0  0  0  0  0  0  0  0  0  0  0  0
    4.7861   16.4158   18.2926 C   0  0  0  0  0  0  0  0  0  0  0  0
    3.3430   16.0436   18.0773 C   0  0  0  0  0  0  0  0  0  0  0  0
    3.0916   15.0642   18.5015 H   0  0  0  0  0  0  0  0  0  0  0  0
    2.6911   16.8019   18.5431 H   0  0  0  0  0  0  0  0  0  0  0  0
    3.1064   16.0037   17.0058 H   0  0  0  0  0  0  0  0  0  0  0  0
    7.3069   18.8491   16.7673 C   0  0  0  0  0  0  0  0  0  0  0  0
    7.8626   19.6139   17.3297 H   0  0  0  0  0  0  0  0  0  0  0  0
    8.0247   18.3569   16.0905 H   0  0  0  0  0  0  0  0  0  0  0  0
    6.5566   19.3591   16.1463 H   0  0  0  0  0  0  0  0  0  0  0  0
    7.5729   15.9355   20.8707 C   0  0  0  0  0  0  0  0  0  0  0  0
    8.5316   16.4632   20.9618 H   0  0  0  0  0  0  0  0  0  0  0  0
    6.9869   16.1405   21.7813 H   0  0  0  0  0  0  0  0  0  0  0  0
    7.7747   14.8559   20.8278 H   0  0  0  0  0  0  0  0  0  0  0  0
    4.1084   15.1578   21.2884 C   0  0  1  0  0  0  0  0  0  0  0  0
    4.6112   15.7845   22.0379 H   0  0  0  0  0  0  0  0  0  0  0  0
    3.2194   15.6995   20.9249 H   0  0  0  0  0  0  0  0  0  0  0  0
    3.7667   13.7601   21.8119 C   0  0  2  0  0  0  0  0  0  0  0  0
    2.6887   13.6082   21.9631 H   0  0  0  0  0  0  0  0  0  0  0  0
    4.2809   13.5305   22.7588 H   0  0  0  0  0  0  0  0  0  0  0  0
    4.2660   12.8893   20.7446 N   0  0  0  0  0  0  0  0  0  0  0  0
    4.0196   11.4836   20.7760 C   0  0  0  0  0  0  0  0  0  0  0  0
    4.9155   10.6367   21.4466 C   0  0  0  0  0  0  0  0  0  0  0  0
    4.6604    9.2665   21.4209 C   0  0  0  0  0  0  0  0  0  0  0  0
    5.3616    8.5895   21.9160 H   0  0  0  0  0  0  0  0  0  0  0  0
    3.5485    8.7342   20.7622 C   0  0  0  0  0  0  0  0  0  0  0  0
    2.6647    9.6106   20.1332 C   0  0  0  0  0  0  0  0  0  0  0  0
    1.7911    9.2103   19.6128 H   0  0  0  0  0  0  0  0  0  0  0  0
    2.8802   10.9909   20.1278 C   0  0  0  0  0  0  0  0  0  0  0  0
    1.9585   11.9151   19.3789 C   0  0  0  0  0  0  0  0  0  0  0  0
    1.6630   12.7837   19.9870 H   0  0  0  0  0  0  0  0  0  0  0  0
    1.0452   11.3910   19.0675 H   0  0  0  0  0  0  0  0  0  0  0  0
    2.4514   12.3043   18.4730 H   0  0  0  0  0  0  0  0  0  0  0  0
    3.3389    7.2448   20.7198 C   0  0  0  0  0  0  0  0  0  0  0  0
    3.3000    6.8208   21.7352 H   0  0  0  0  0  0  0  0  0  0  0  0
    4.1707    6.7596   20.1866 H   0  0  0  0  0  0  0  0  0  0  0  0
    2.4059    6.9825   20.2023 H   0  0  0  0  0  0  0  0  0  0  0  0
    6.1356   11.1877   22.1323 C   0  0  0  0  0  0  0  0  0  0  0  0
    6.7266   10.3790   22.5831 H   0  0  0  0  0  0  0  0  0  0  0  0
    5.8635   11.8884   22.9378 H   0  0  0  0  0  0  0  0  0  0  0  0
    6.7786   11.7349   21.4240 H   0  0  0  0  0  0  0  0  0  0  0  0
  1  5  1  0  0  0  0
  1  2  1  0  0  0  0
  1  3  1  0  0  0  0
  4  1  1  0  0  0  0
  5  6  1  0  0  0  0
  7  5  1  0  0  0  0
  8  1  1  0  0  0  0
  9 10  1  0  0  0  0
  9  8  1  0  0  0  0
 10 11  1  0  0  0  0
 11 26  1  0  0  0  0
 11 12  2  0  0  0  0
 12 13  1  0  0  0  0
 14 12  1  0  0  0  0
 14 22  1  0  0  0  0
 15 14  2  0  0  0  0
 16 15  1  0  0  0  0
 17 10  2  0  0  0  0
 17 15  1  0  0  0  0
 18 19  1  0  0  0  0
 18 17  1  0  0  0  0
 20 18  1  0  0  0  0
 21 18  1  0  0  0  0
 22 23  1  0  0  0  0
 22 24  1  0  0  0  0
 25 22  1  0  0  0  0
 26 27  1  0  0  0  0
 26 28  1  0  0  0  0
 29 26  1  0  0  0  0
 30 33  1  0  0  0  0
 30  9  1  0  0  0  0
 31 30  1  0  0  0  0
 32 30  1  0  0  0  0
 33 34  1  0  0  0  0
 33 36  1  0  0  0  0
 35 33  1  0  0  0  0
 36 37  1  0  0  0  0
 36  8  1  0  0  0  0
 37 38  2  0  0  0  0
 38 39  1  0  0  0  0
 38 53  1  0  0  0  0
 39 40  1  0  0  0  0
 41 39  2  0  0  0  0
 41 49  1  0  0  0  0
 42 41  1  0  0  0  0
 43 42  1  0  0  0  0
 44 42  2  0  0  0  0
 44 37  1  0  0  0  0
 45 47  1  0  0  0  0
 45 44  1  0  0  0  0
 46 45  1  0  0  0  0
 48 45  1  0  0  0  0
 49 50  1  0  0  0  0
 49 51  1  0  0  0  0
 52 49  1  0  0  0  0
 53 54  1  0  0  0  0
 55 53  1  0  0  0  0
 56 53  1  0  0  0  0
 57 59  1  0  0  0  0
 57 58  1  0  0  0  0
 57 75  1  0  0  0  0
 59 61  1  0  0  0  0
 60 59  1  0  0  0  0
 61 62  1  0  0  0  0
 63 61  1  0  0  0  0
 64 61  1  0  0  0  0
 64 65  2  0  0  0  0
 65 66  1  0  0  0  0
 67 65  1  0  0  0  0
 67 68  1  0  0  0  0
 69 67  2  0  0  0  0
 70 69  1  0  0  0  0
 71 73  2  0  0  0  0
 71 69  1  0  0  0  0
 72 71  1  0  0  0  0
 73 64  1  0  0  0  0
 74 73  1  0  0  0  0
 75 76  1  0  0  0  0
 75103  1  0  0  0  0
 76 97  1  0  0  0  0
 77 78  1  0  0  0  0
 77 76  1  0  0  0  0
 78 93  1  0  0  0  0
 79 80  1  0  0  0  0
 79 78  2  0  0  0  0
 81 79  1  0  0  0  0
 82 81  2  0  0  0  0
 82 84  1  0  0  0  0
 83 82  1  0  0  0  0
 84 77  2  0  0  0  0
 85 84  1  0  0  0  0
 85 86  1  0  0  0  0
 85 87  1  0  0  0  0
 88 85  1  0  0  0  0
 89 90  1  0  0  0  0
 89 81  1  0  0  0  0
 91 89  1  0  0  0  0
 92 89  1  0  0  0  0
 93 94  1  0  0  0  0
 93 95  1  0  0  0  0
 96 93  1  0  0  0  0
 97100  1  0  0  0  0
 97 98  1  0  0  0  0
 99 97  1  0  0  0  0
100101  1  0  0  0  0
100102  1  0  0  0  0
103104  1  0  0  0  0
103100  1  0  0  0  0
104105  2  0  0  0  0
105120  1  0  0  0  0
106105  1  0  0  0  0
106107  1  0  0  0  0
108106  2  0  0  0  0
109108  1  0  0  0  0
110109  1  0  0  0  0
111109  2  0  0  0  0
111104  1  0  0  0  0
112113  1  0  0  0  0
112111  1  0  0  0  0
114112  1  0  0  0  0
115112  1  0  0  0  0
116108  1  0  0  0  0
116117  1  0  0  0  0
118116  1  0  0  0  0
119116  1  0  0  0  0
120121  1  0  0  0  0
120122  1  0  0  0  0
123120  1  0  0  0  0
 57  1  1  0  0  0  0
M  END
$$$$
