t106-mol.sdf
 OpenBabel12061712073D

 29 30  0  0  0  0  0  0  0  0999 V2000
   -0.3300    0.0514    1.0693 C   0  0  0  0  0  0  0  0  0  0  0  0
    0.9386    0.1658    1.6258 C   0  0  0  0  0  0  0  0  0  0  0  0
    1.5578    1.4084    1.6949 C   0  0  0  0  0  0  0  0  0  0  0  0
    0.9083    2.5366    1.2076 C   0  0  0  0  0  0  0  0  0  0  0  0
   -0.3603    2.4222    0.6511 C   0  0  0  0  0  0  0  0  0  0  0  0
   -0.9794    1.1796    0.5820 C   0  0  0  0  0  0  0  0  0  0  0  0
   -2.2480    1.0652    0.0255 C   0  0  0  0  0  0  0  0  0  0  0  0
   -2.8672   -0.1774   -0.0436 C   0  0  0  0  0  0  0  0  0  0  0  0
   -2.2177   -1.3056    0.4437 C   0  0  0  0  0  0  0  0  0  0  0  0
   -0.9491   -1.1912    1.0002 C   0  0  0  0  0  0  0  0  0  0  0  0
   -2.7932   -2.4605    0.3795 C   0  0  0  0  0  0  0  0  0  0  0  0
   -3.3250   -3.5279    0.3201 C   0  0  0  0  0  0  0  0  0  0  0  0
   -3.9005   -4.6829    0.2559 C   0  0  0  0  0  0  0  0  0  0  0  0
   -3.7366   -5.4078   -0.7492 O   0  0  0  0  0  0  0  0  0  0  0  0
   -4.6730   -5.1037    1.2667 N   0  0  0  0  0  0  0  0  0  0  0  0
   -5.3011   -6.3641    1.1966 C   0  0  0  0  0  0  0  0  0  0  0  0
   -4.8932   -4.1294    2.6175 S   0  0  0  0  0  0  0  0  0  0  0  0
   -3.4289   -4.5510    4.0185 S   0  0  0  0  0  0  0  0  0  0  0  0
    1.4152   -0.6620    1.9835 H   0  0  0  0  0  0  0  0  0  0  0  0
    2.4887    1.4924    2.1033 H   0  0  0  0  0  0  0  0  0  0  0  0
    1.3626    3.4484    1.2583 H   0  0  0  0  0  0  0  0  0  0  0  0
   -0.8369    3.2500    0.2934 H   0  0  0  0  0  0  0  0  0  0  0  0
   -2.7246    1.8930   -0.3322 H   0  0  0  0  0  0  0  0  0  0  0  0
   -3.7981   -0.2613   -0.4520 H   0  0  0  0  0  0  0  0  0  0  0  0
   -0.4725   -2.0190    1.3579 H   0  0  0  0  0  0  0  0  0  0  0  0
   -6.3818   -6.2353    1.2550 H   0  0  0  0  0  0  0  0  0  0  0  0
   -5.0431   -6.8467    0.2539 H   0  0  0  0  0  0  0  0  0  0  0  0
   -4.9638   -6.9848    2.0267 H   0  0  0  0  0  0  0  0  0  0  0  0
   -2.4668   -4.8280    4.9390 H   0  0  0  0  0  0  0  0  0  0  0  0
  1  2  2  0  0  0  0
  1  6  1  0  0  0  0
  1 10  1  0  0  0  0
  2  3  1  0  0  0  0
  2 19  1  0  0  0  0
  3  4  2  0  0  0  0
  3 20  1  0  0  0  0
  4  5  1  0  0  0  0
  4 21  1  0  0  0  0
  5  6  2  0  0  0  0
  5 22  1  0  0  0  0
  6  7  1  0  0  0  0
  7  8  2  0  0  0  0
  7 23  1  0  0  0  0
  8  9  1  0  0  0  0
  8 24  1  0  0  0  0
  9 10  2  0  0  0  0
  9 11  1  0  0  0  0
 10 25  1  0  0  0  0
 11 12  3  0  0  0  0
 12 13  1  0  0  0  0
 13 14  2  0  0  0  0
 13 15  1  0  0  0  0
 15 16  1  0  0  0  0
 15 17  1  0  0  0  0
 16 26  1  0  0  0  0
 16 27  1  0  0  0  0
 16 28  1  0  0  0  0
 17 18  1  0  0  0  0
 18 29  1  0  0  0  0
M  END
$$$$
