t107-mol.sdf
 OpenBabel12061717223D

 29 30  0  0  1  0  0  0  0  0999 V2000
   -0.3300    0.0514    1.0693 C   0  0  1  0  0  0  0  0  0  0  0  0
    1.1312    0.1582    0.0360 C   0  0  0  0  0  0  0  0  0  0  0  0
    1.7504    1.4009    0.1050 C   0  0  0  0  0  0  0  0  0  0  0  0
    1.0046    2.5328    0.4126 C   0  0  0  0  0  0  0  0  0  0  0  0
   -0.3603    2.4222    0.6511 C   0  0  0  0  0  0  0  0  0  0  0  0
   -0.9794    1.1796    0.5820 C   0  0  0  0  0  0  0  0  0  0  0  0
   -2.2480    1.0652    0.0255 C   0  0  0  0  0  0  0  0  0  0  0  0
   -2.8672   -0.1774   -0.0436 C   0  0  0  0  0  0  0  0  0  0  0  0
   -2.2177   -1.3056    0.4437 C   0  0  0  0  0  0  0  0  0  0  0  0
   -0.9491   -1.1912    1.0002 C   0  0  0  0  0  0  0  0  0  0  0  0
   -3.0199   -2.2994    0.2491 C   0  0  0  0  0  0  0  0  0  0  0  0
   -3.7614   -3.2179    0.0691 C   0  0  0  0  0  0  0  0  0  0  0  0
   -4.5636   -4.2118   -0.1255 C   0  0  0  0  0  0  0  0  0  0  0  0
   -5.6452   -4.3929   -0.7255 O   0  0  0  0  0  0  0  0  0  0  0  0
   -4.0784   -5.4579   -0.2099 N   0  0  0  0  0  0  0  0  0  0  0  0
   -4.2347   -6.1962   -1.4010 C   0  0  0  0  0  0  0  0  0  0  0  0
   -3.2839   -6.1407    1.1035 S   0  0  0  0  0  0  0  0  0  0  0  0
   -0.6459   -5.5869    0.9469 S   0  0  0  0  0  0  0  0  0  0  0  0
    1.6785   -0.6724   -0.1896 H   0  0  0  0  0  0  0  0  0  0  0  0
    2.7520    1.4821   -0.0699 H   0  0  0  0  0  0  0  0  0  0  0  0
    1.0962    3.5400    0.5453 H   0  0  0  0  0  0  0  0  0  0  0  0
   -0.9076    3.2528    0.8767 H   0  0  0  0  0  0  0  0  0  0  0  0
   -2.7246    1.8930   -0.3322 H   0  0  0  0  0  0  0  0  0  0  0  0
   -3.7981   -0.2613   -0.4520 H   0  0  0  0  0  0  0  0  0  0  0  0
   -0.4725   -2.0190    1.3579 H   0  0  0  0  0  0  0  0  0  0  0  0
   -4.8006   -7.1044   -1.1939 H   0  0  0  0  0  0  0  0  0  0  0  0
   -4.7704   -5.5935   -2.1344 H   0  0  0  0  0  0  0  0  0  0  0  0
   -3.2538   -6.4614   -1.7954 H   0  0  0  0  0  0  0  0  0  0  0  0
    0.2119   -5.2333    1.9413 H   0  0  0  0  0  0  0  0  0  0  0  0
  1  6  1  6  0  0  0
  1 10  1  0  0  0  0
  1  2  1  0  0  0  0
  2  3  2  0  0  0  0
  2 19  1  0  0  0  0
  3  4  2  0  0  0  0
  3 20  1  0  0  0  0
  4  5  2  0  0  0  0
  4 21  1  0  0  0  0
  5  6  2  0  0  0  0
  5 22  1  0  0  0  0
  6  7  2  0  0  0  0
  7  8  2  0  0  0  0
  7 23  1  0  0  0  0
  8  9  2  0  0  0  0
  8 24  1  0  0  0  0
  9 10  2  0  0  0  0
  9 11  2  0  0  0  0
 10 25  1  0  0  0  0
 11 12  3  0  0  0  0
 12 13  1  0  0  0  0
 13 14  2  0  0  0  0
 13 15  1  0  0  0  0
 15 16  1  0  0  0  0
 15 17  1  0  0  0  0
 16 26  1  0  0  0  0
 16 27  1  0  0  0  0
 16 28  1  0  0  0  0
 17 18  1  0  0  0  0
 18 29  1  0  0  0  0
M  END
$$$$
