axes
 OpenBabel12022417553D

  4  1  0  0  0  0  0  0  0  0999 V2000
    0.0000    0.0000    0.0000 Ni  0  0  0  0  0  0  0  0  0  0  0  0
    2.1400    0.0000    0.0000 P   0  0  0  0  0  0  0  0  0  0  0  0
    0.0000    2.1400    0.0000 P   0  0  0  0  0  0  0  0  0  0  0  0
    0.0000    0.0000    2.1400 Zn  0  0  0  0  0  0  0  0  0  0  0  0
  3  4  1  0  0  0  0
M  END
$$$$
