tsToR5_core
  Mrv0541 12131615093D          

 15 16  0  0  0  0            999 V2000
   -0.3981    1.1897    3.6629 H   0  0  0  0  0  0  0  0  0  0  0  0
    0.5860    0.7252    3.8252 C   0  0  0  0  0  0  0  0  0  0  0  0
    0.6337    0.4571    4.8976 H   0  0  0  0  0  0  0  0  0  0  0  0
    1.3723    1.4635    3.6254 H   0  0  0  0  0  0  0  0  0  0  0  0
    0.7810   -0.5280    3.0119 C   0  0  0  0  0  0  0  0  0  0  0  0
    1.8049   -0.8982    3.0083 H   0  0  0  0  0  0  0  0  0  0  0  0
   -0.2620   -1.6460    3.0571 C   0  0  0  0  0  0  0  0  0  0  0  0
   -1.1995   -1.3099    3.5198 H   0  0  0  0  0  0  0  0  0  0  0  0
    0.1309   -2.5045    3.6302 H   0  0  0  0  0  0  0  0  0  0  0  0
   -0.4625   -1.9588    1.5697 C   0  0  0  0  0  0  0  0  0  0  0  0
    0.3021   -2.6326    1.1660 H   0  0  0  0  0  0  0  0  0  0  0  0
   -1.4736   -2.2845    1.3035 H   0  0  0  0  0  0  0  0  0  0  0  0
   -0.0704   -0.0099    1.1684 Ru  0  0  0  0  0  0  0  0  0  0  0  0
   -2.3125    0.5297    1.4238 Cl  0  0  0  0  0  0  0  0  0  0  0  0
    2.3525   -0.3949    0.6885 Cl  0  0  0  0  0  0  0  0  0  0  0  0
  1  2  1  0  0  0  0
  2  3  1  0  0  0  0
  4  2  1  0  0  0  0
  5  6  1  0  0  0  0
  5  7  1  0  0  0  0
  5  2  1  0  0  0  0
  7  8  1  0  0  0  0
  7  9  1  0  0  0  0
 10  7  1  0  0  0  0
 11 10  1  0  0  0  0
 12 10  1  0  0  0  0
 13 14  1  0  0  0  0
 13 10  1  0  0  0  0
 13  5  1  0  0  0  0
 15 13  1  0  0  0  0
  1 13  1  0  0  0  0
M  END
$$$$
