dnRun_Hexagon-1_M00000006_C_DFT
  CDK     08282017083D

 36 38  0  0  1  0  0  0  0  0999 V2000
    0.5578    0.5697   -3.4344 H   0  0  0  0  0  0  0  0  0  0  0  0
    0.2864    0.3181   -0.7133 Ru  0  0  0  0  0  0  0  0  0  0  0  0
    1.6247    0.7494   -3.1708 C   0  0  0  0  0  0  0  0  0  0  0  0
   -1.9033    0.7344   -1.2855 Cl  0  0  0  0  0  0  0  0  0  0  0  0
    2.4079   -0.6970    0.0732 Cl  0  0  0  0  0  0  0  0  0  0  0  0
    0.5146    2.2332   -0.0246 C   0  0  0  0  0  0  0  0  0  0  0  0
    1.7825    1.3370   -1.7904 C   0  0  1  0  0  0  0  0  0  0  0  0
   -0.1417   -0.8011    0.8780 C   0  0  0  0  0  3  0  0  0  0  0  0
    1.3161    2.3194    0.7386 H   0  0  0  0  0  0  0  0  0  0  0  0
   -0.4198    2.7347    0.2954 H   0  0  0  0  0  0  0  0  0  0  0  0
    1.0277    2.6158   -1.4133 C   0  0  0  0  0  0  0  0  0  0  0  0
    0.1884    2.8294   -2.1069 H   0  0  0  0  0  0  0  0  0  0  0  0
    1.7077    3.5024   -1.4218 H   0  0  0  0  0  0  0  0  0  0  0  0
    2.8072    1.3016   -1.3912 H   0  0  0  0  0  0  0  0  0  0  0  0
   -0.4116   -0.5095    2.1878 N   0  0  0  0  0  0  0  0  0  0  0  0
   -0.3743   -2.1510    0.7700 N   0  0  0  0  0  0  0  0  0  0  0  0
   -0.4127    0.8344    2.7688 C   0  0  0  0  0  0  0  0  0  0  0  0
   -0.8113   -1.6476    2.8753 C   0  0  0  0  0  0  0  0  0  0  0  0
    0.3863    1.4001    2.2627 H   0  0  0  0  0  0  0  0  0  0  0  0
   -0.1316    0.7269    3.8352 H   0  0  0  0  0  0  0  0  0  0  0  0
   -1.7700    1.5143    2.6075 C   0  0  0  0  0  0  0  0  0  0  0  0
   -1.7301    2.5425    3.0184 H   0  0  0  0  0  0  0  0  0  0  0  0
   -2.5638    0.9571    3.1448 H   0  0  0  0  0  0  0  0  0  0  0  0
   -2.0458    1.5690    1.5355 H   0  0  0  0  0  0  0  0  0  0  0  0
   -1.0721   -1.6209    3.9355 H   0  0  0  0  0  0  0  0  0  0  0  0
   -0.7863   -2.6853    1.9786 C   0  0  0  0  0  0  0  0  0  0  0  0
   -1.0156   -3.7460    2.1012 H   0  0  0  0  0  0  0  0  0  0  0  0
   -0.2248   -2.8993   -0.4809 C   0  0  0  0  0  0  0  0  0  0  0  0
    0.2115   -3.8852   -0.2241 H   0  0  0  0  0  0  0  0  0  0  0  0
    0.5444   -2.3576   -1.0697 H   0  0  0  0  0  0  0  0  0  0  0  0
   -1.5420   -3.0394   -1.2385 C   0  0  0  0  0  0  0  0  0  0  0  0
   -1.3757   -3.6084   -2.1748 H   0  0  0  0  0  0  0  0  0  0  0  0
   -1.9496   -2.0418   -1.4979 H   0  0  0  0  0  0  0  0  0  0  0  0
   -2.2973   -3.5829   -0.6359 H   0  0  0  0  0  0  0  0  0  0  0  0
    2.0064    1.4708   -3.9336 H   0  0  0  0  0  0  0  0  0  0  0  0
    2.1890   -0.1969   -3.2757 H   0  0  0  0  0  0  0  0  0  0  0  0
  1  3  1  0  0  0  0 
  1  2  1  0  0  0  0 
  3 35  1  0  0  0  0 
 36  3  1  0  0  0  0 
  7 14  1  0  0  0  0 
  7 11  1  0  0  0  0 
  7  3  1  0  0  0  0 
 11 12  1  0  0  0  0 
 11 13  1  0  0  0  0 
  6 11  1  0  0  0  0 
  9  6  1  0  0  0  0 
 10  6  1  0  0  0  0 
  2  4  1  0  0  0  0 
  2  6  1  0  0  0  0 
  2  7  1  0  0  0  0 
  5  2  1  0  0  0  0 
  8 15  1  0  0  0  0 
 15 18  1  0  0  0  0 
 18 26  2  0  0  0  0 
 16 26  1  0  0  0  0 
  8 16  1  0  0  0  0 
 17 19  1  0  0  0  0 
 17 20  1  0  0  0  0 
 17 21  1  0  0  0  0 
 21 22  1  0  0  0  0 
 21 23  1  0  0  0  0 
 21 24  1  0  0  0  0 
 15 17  1  0  0  0  0 
 28 29  1  0  0  0  0 
 28 30  1  0  0  0  0 
 28 31  1  0  0  0  0 
 31 32  1  0  0  0  0 
 31 33  1  0  0  0  0 
 31 34  1  0  0  0  0 
 16 28  1  0  0  0  0 
 18 25  1  0  0  0  0 
 26 27  1  0  0  0  0 
  2  8  1  0  0  0  0 
M  END
$$$$
