molecule_A
 OpenBabel02132416363D

 13 12  0  0  0  0  0  0  0  0999 V2000
    1.8789   -0.5308   -0.0000 C   0  0  0  0  0  0  0  0  0  0  0  0
    0.4927    0.0604   -0.0000 C   0  0  0  0  0  0  0  0  0  0  0  0
    0.3475    1.2593   -0.0000 O   0  0  0  0  0  0  0  0  0  0  0  0
   -0.7124   -0.8445    0.0000 C   0  0  0  0  0  0  0  0  0  0  0  0
   -1.9864    0.0028    0.0000 C   0  0  0  0  0  0  0  0  0  0  0  0
    2.6162    0.2720   -0.0000 H   0  0  0  0  0  0  0  0  0  0  0  0
    2.0115   -1.1459    0.8900 H   0  0  0  0  0  0  0  0  0  0  0  0
    2.0115   -1.1459   -0.8900 H   0  0  0  0  0  0  0  0  0  0  0  0
   -0.6944   -1.4736   -0.8900 H   0  0  0  0  0  0  0  0  0  0  0  0
   -0.6944   -1.4735    0.8900 H   0  0  0  0  0  0  0  0  0  0  0  0
   -2.8580   -0.6518    0.0000 H   0  0  0  0  0  0  0  0  0  0  0  0
   -2.0044    0.6318    0.8900 H   0  0  0  0  0  0  0  0  0  0  0  0
   -2.0044    0.6318   -0.8900 H   0  0  0  0  0  0  0  0  0  0  0  0
  1  2  1  0  0  0  0
  1  6  1  0  0  0  0
  1  7  1  0  0  0  0
  1  8  1  0  0  0  0
  2  3  2  0  0  0  0
  2  4  1  0  0  0  0
  4  5  1  0  0  0  0
  4  9  1  0  0  0  0
  4 10  1  0  0  0  0
  5 11  1  0  0  0  0
  5 12  1  0  0  0  0
  5 13  1  0  0  0  0
M  END
$$$$
molecule_B
 OpenBabel02132416363D

 14 13  0  0  0  0  0  0  0  0999 V2000
    1.8789   -0.5308   -0.0000 C   0  0  0  0  0  0  0  0  0  0  0  0
    0.4927    0.0604   -0.0000 C   0  0  0  0  0  0  0  0  0  0  0  0
    0.3475    1.2593   -0.0000 O   0  0  0  0  0  0  0  0  0  0  0  0
   -0.7124   -0.8445    0.0000 C   0  0  0  0  0  0  0  0  0  0  0  0
   -1.9864    0.0028    0.0000 C   0  0  0  0  0  0  0  0  0  0  0  0
    2.6162    0.2720   -0.0000 H   0  0  0  0  0  0  0  0  0  0  0  0
    2.0115   -1.1459    0.8900 H   0  0  0  0  0  0  0  0  0  0  0  0
    2.0115   -1.1459   -0.8900 H   0  0  0  0  0  0  0  0  0  0  0  0
   -0.6944   -1.4736   -0.8900 H   0  0  0  0  0  0  0  0  0  0  0  0
   -0.6944   -1.4735    0.8900 H   0  0  0  0  0  0  0  0  0  0  0  0
   -3.1119   -0.8425    0.0000 O   0  0  0  0  0  0  0  0  0  0  0  0
   -2.0044    0.6318    0.8900 H   0  0  0  0  0  0  0  0  0  0  0  0
   -2.0044    0.6318   -0.8900 H   0  0  0  0  0  0  0  0  0  0  0  0
   -3.0965   -1.3967   -0.7837 H   0  0  0  0  0  0  0  0  0  0  0  0
  1  2  1  0  0  0  0
  1  6  1  0  0  0  0
  1  7  1  0  0  0  0
  1  8  1  0  0  0  0
  2  3  2  0  0  0  0
  2  4  1  0  0  0  0
  4  5  1  0  0  0  0
  4  9  1  0  0  0  0
  4 10  1  0  0  0  0
  5 11  1  0  0  0  0
  5 12  1  0  0  0  0
  5 13  1  0  0  0  0
 14 11  1  0  0  0  0
M  END
$$$$
molecule_C
 OpenBabel02132416363D

 17 16  0  0  0  0  0  0  0  0999 V2000
    1.8789   -0.5308   -0.0000 C   0  0  0  0  0  0  0  0  0  0  0  0
    0.4927    0.0604   -0.0000 C   0  0  0  0  0  0  0  0  0  0  0  0
    0.3475    1.2593   -0.0000 O   0  0  0  0  0  0  0  0  0  0  0  0
   -0.7124   -0.8445    0.0000 C   0  0  0  0  0  0  0  0  0  0  0  0
   -1.9864    0.0028    0.0000 C   0  0  0  0  0  0  0  0  0  0  0  0
    2.6162    0.2720   -0.0000 H   0  0  0  0  0  0  0  0  0  0  0  0
    2.0115   -1.1459    0.8900 H   0  0  0  0  0  0  0  0  0  0  0  0
    2.0115   -1.1459   -0.8900 H   0  0  0  0  0  0  0  0  0  0  0  0
   -0.6944   -1.4736   -0.8900 H   0  0  0  0  0  0  0  0  0  0  0  0
   -0.6944   -1.4735    0.8900 H   0  0  0  0  0  0  0  0  0  0  0  0
   -3.1119   -0.8425    0.0000 O   0  0  0  0  0  0  0  0  0  0  0  0
   -2.0044    0.6318    0.8900 H   0  0  0  0  0  0  0  0  0  0  0  0
   -2.0044    0.6318   -0.8900 H   0  0  0  0  0  0  0  0  0  0  0  0
   -3.0893   -1.6551   -1.1491 Si  0  0  0  0  0  0  0  0  0  0  0  0
   -3.9608   -2.3097   -1.1491 H   0  0  0  0  0  0  0  0  0  0  0  0
   -2.1818   -2.2588   -1.1491 H   0  0  0  0  0  0  0  0  0  0  0  0
   -3.1072   -1.0262   -2.0392 H   0  0  0  0  0  0  0  0  0  0  0  0
  1  2  1  0  0  0  0
  1  6  1  0  0  0  0
  1  7  1  0  0  0  0
  1  8  1  0  0  0  0
  2  3  2  0  0  0  0
  2  4  1  0  0  0  0
  4  5  1  0  0  0  0
  4  9  1  0  0  0  0
  4 10  1  0  0  0  0
  5 11  1  0  0  0  0
  5 12  1  0  0  0  0
  5 13  1  0  0  0  0
 14 11  1  0  0  0  0
 15 14  1  0  0  0  0
 16 14  1  0  0  0  0
 17 14  1  0  0  0  0
M  END
$$$$
