110
Ru_dimer1_Cl_conf1
H       7.14940     10.51848     18.27465
C       6.51347     11.15043     18.92056
Ru      6.08385     12.77535     18.29688
Cl      7.91401     14.04306     19.02238
C       4.79651     13.38787     19.70244
N       4.28308     14.64393     19.66584
C       3.10136     14.80970     20.51221
C       3.14096     13.55002     21.36963
N       4.09817     12.70974     20.64453
C       4.83076     15.78474     18.99372
C       5.77576     16.55536     19.70103
C       6.29775     17.68758     19.08830
C       5.88813     18.08525     17.81071
C       4.91279     17.33354     17.16529
C       4.35654     16.18220     17.73853
C       4.41042     11.43070     21.19470
C       3.64066     10.32465     20.81819
C       3.94562      9.08727     21.39113
C       4.97869      8.94129     22.31790
C       5.72520     10.07025     22.66886
C       5.45976     11.32490     22.12073
C       2.55232     10.46104     19.78834
C       5.28037      7.60339     22.94247
C       6.33180     12.50988     22.43910
C       6.20586     16.16773     21.08968
C       6.49732     19.29928     17.15925
C       3.24812     15.47511     17.00529
Cl      7.43880     12.23360     16.13841
Ru      5.56135     12.11309     14.66292
C       6.82756     12.27726     13.12097
N       7.57487     11.35762     12.46456
C       8.49427     11.95044     11.48915
C       8.44909     13.42895     11.85768
N       7.26869     13.49653     12.71918
C       7.34036      9.95205     12.38941
C       6.30991      9.47659     11.56593
C       6.11945      8.09586     11.48530
C       6.92169      7.20072     12.19682
C       7.93505      7.71435     13.00966
C       8.16556      9.08671     13.11855
C       6.64968     14.76577     12.96228
C       7.08776     15.59791     13.99870
C       6.46196     16.84311     14.14474
C       5.45270     17.26995     13.28905
C       5.07923     16.43352     12.23129
C       5.67025     15.19063     12.04170
C       5.37654     10.42846     10.86684
C       6.71402      5.71308     12.07507
C       9.23193      9.62998     14.03030
C       8.22639     15.25078     14.92022
C       4.76965     18.59791     13.48755
C       5.27646     14.32424     10.87638
Cl      4.21728     12.27262     16.88988
Cl      3.66915     12.94484     13.56286
C       5.23234     10.35101     14.64159
H       4.62819      9.94473     15.47282
H       8.13373     11.75479     10.46469
H       9.49682     11.51235     11.58655
H       9.34095     13.75092     12.42007
H       8.33437     14.09085     10.98827
H       5.31103      7.71065     10.85842
H       8.56121      7.02704     13.58466
H       6.79699     17.49685     14.95257
H       4.30728     16.76413     11.53175
H       4.72804     10.94004     11.59787
H       4.73522      9.89579     10.15227
H       5.91901     11.21354     10.31919
H       6.95281      5.19697     13.01611
H       7.36633      5.29175     11.29282
H       5.67589      5.47277     11.80526
H       9.98099     10.21597     13.47457
H       9.75919      8.81588     14.54532
H       8.79566     10.29938     14.78695
H       8.66821     14.27435     14.69507
H       7.89335     15.21688     15.96899
H       9.01054     16.02053     14.84715
H       3.80641     18.46681     14.00833
H       4.55439     19.08641     12.52585
H       5.38531     19.28166     14.08871
H       4.57788     14.85588     10.21661
H       4.78109     13.41073     11.23420
H       6.15025     14.02807     10.27383
H       5.53145      9.62389     13.87694
H       6.24769     10.71476     19.89132
H       2.16633     13.04923     21.44574
H       3.50789     13.74160     22.39266
H       3.16904     15.73704     21.09753
H       2.19685     14.86411     19.88427
H       3.36180      8.21150     21.09619
H       6.54823      9.96875     23.38133
H       7.04316     18.28195     19.62275
H       4.54971     17.64834     16.18481
H       2.95661     10.84922     18.84131
H       2.07334      9.49221     19.59357
H       1.76903     11.16268     20.11621
H       4.81193      6.78230     22.38219
H       6.36386      7.41737     22.98185
H       4.90257      7.56144     23.97681
H       5.74100     13.40308     22.69159
H       6.99743     12.29161     23.28463
H       6.95517     12.77562     21.56883
H       6.75156     15.21412     21.06476
H       6.87029     16.93055     21.51699
H       5.34417     16.05341     21.76700
H       7.47473     19.05263     16.71200
H       5.85321     19.69362     16.36077
H       6.66877     20.10346     17.88984
H       3.59139     15.10461     16.02709
H       2.86305     14.61018     17.55565
H       2.41920     16.17628     16.82081
