t55-nwc_lastGeom.xyz
 OpenBabel11092317313D

 47 46  0  0  1  0  0  0  0  0999 V2000
   -3.0236    0.8911   -2.2873 C   0  0  0  0  0  0  0  0  0  0  0  0
   -2.9245    1.8760   -1.8153 H   0  0  0  0  0  0  0  0  0  0  0  0
   -3.9988    0.8422   -2.7972 H   0  0  0  0  0  0  0  0  0  0  0  0
   -2.2535    0.7901   -3.0610 H   0  0  0  0  0  0  0  0  0  0  0  0
   -2.9501   -0.2207   -1.2742 C   0  0  1  0  0  0  0  0  0  0  0  0
   -2.7342   -1.2280   -1.6441 H   0  0  0  0  0  0  0  0  0  0  0  0
   -0.9119    0.1250    0.0341 Ru  0  0  0  0  0  0  0  0  0  0  0  0
   -3.4999   -0.1320   -0.0148 C   0  0  0  0  0  3  0  0  0  0  0  0
   -0.5901   -2.2834   -0.1314 Cl  0  0  0  0  0  0  0  0  0  0  0  0
   -1.2271    2.5295    0.1672 Cl  0  0  0  0  0  0  0  0  0  0  0  0
   -1.5387   -0.0417    1.7239 C   0  0  0  0  0  3  0  0  0  0  0  0
    1.0542    0.2984    0.1103 C   0  0  2  0  0  3  0  0  0  0  0  0
   -1.6414   -1.0270    2.2055 H   0  0  0  0  0  0  0  0  0  0  0  0
   -1.8925    0.8339    2.2925 H   0  0  0  0  0  0  0  0  0  0  0  0
    1.6253    0.5106   -1.3101 C   0  0  0  0  0  0  0  0  0  0  0  0
    1.8475    0.2125    1.1683 N   0  0  0  0  0  0  0  0  0  0  0  0
    0.4459    0.5144   -2.3203 C   0  0  0  0  0  0  0  0  0  0  0  0
    2.2703    1.9152   -1.4095 C   0  0  0  0  0  0  0  0  0  0  0  0
    2.5532   -0.6466   -1.7531 C   0  0  0  0  0  0  0  0  0  0  0  0
   -0.1045   -0.4391   -2.3025 H   0  0  0  0  0  0  0  0  0  0  0  0
    0.8433    0.6248   -3.3358 H   0  0  0  0  0  0  0  0  0  0  0  0
   -0.2245    1.3647   -2.1435 H   0  0  0  0  0  0  0  0  0  0  0  0
    1.5468    2.6726   -1.0855 H   0  0  0  0  0  0  0  0  0  0  0  0
    2.5333    2.1132   -2.4559 H   0  0  0  0  0  0  0  0  0  0  0  0
    3.1783    2.0331   -0.8118 H   0  0  0  0  0  0  0  0  0  0  0  0
    2.7722   -0.5318   -2.8218 H   0  0  0  0  0  0  0  0  0  0  0  0
    2.0396   -1.6047   -1.6090 H   0  0  0  0  0  0  0  0  0  0  0  0
    3.5109   -0.6836   -1.2301 H   0  0  0  0  0  0  0  0  0  0  0  0
    3.3316    0.1934    1.1842 C   0  0  0  0  0  0  0  0  0  0  0  0
    1.2752    0.0407    2.5216 C   0  0  0  0  0  0  0  0  0  0  0  0
    3.6683    0.9001    1.9543 H   0  0  0  0  0  0  0  0  0  0  0  0
    3.7205    0.5522    0.2358 H   0  0  0  0  0  0  0  0  0  0  0  0
    3.8868   -1.2080    1.4744 C   0  0  0  0  0  0  0  0  0  0  0  0
    3.5365   -1.5571    2.4540 H   0  0  0  0  0  0  0  0  0  0  0  0
    3.4870   -1.9106    0.7338 H   0  0  0  0  0  0  0  0  0  0  0  0
    5.4192   -1.2073    1.4408 C   0  0  0  0  0  0  0  0  0  0  0  0
    5.7945   -0.8839    0.4612 H   0  0  0  0  0  0  0  0  0  0  0  0
    5.8152   -2.2101    1.6336 H   0  0  0  0  0  0  0  0  0  0  0  0
    5.8352   -0.5314    2.1989 H   0  0  0  0  0  0  0  0  0  0  0  0
    0.5797    0.8561    2.7320 H   0  0  0  0  0  0  0  0  0  0  0  0
    2.0808    0.0638    3.2596 H   0  0  0  0  0  0  0  0  0  0  0  0
    0.7555   -0.9184    2.5898 H   0  0  0  0  0  0  0  0  0  0  0  0
   -3.8206    0.8570    0.3254 H   0  0  0  0  0  0  0  0  0  0  0  0
   -3.9899   -1.3373    0.7413 C   0  0  0  0  0  0  0  0  0  0  0  0
   -4.0226   -1.1713    1.8245 H   0  0  0  0  0  0  0  0  0  0  0  0
   -5.0169   -1.5628    0.4140 H   0  0  0  0  0  0  0  0  0  0  0  0
   -3.3598   -2.2109    0.5297 H   0  0  0  0  0  0  0  0  0  0  0  0
  1  2  1  0  0  0  0
  1  5  1  0  0  0  0
  3  1  1  0  0  0  0
  4  1  1  0  0  0  0
  5  6  1  6  0  0  0
  5  8  1  0  0  0  0
  5  7  1  0  0  0  0
  7 12  1  0  0  0  0
  7 10  1  0  0  0  0
  7 11  1  0  0  0  0
  8 43  1  0  0  0  0
  8 44  1  0  0  0  0
  9  7  1  0  0  0  0
 11 13  1  0  0  0  0
 11 14  1  0  0  0  0
 12 15  1  6  0  0  0
 12 16  1  0  0  0  0
 16 29  1  0  0  0  0
 16 30  1  0  0  0  0
 17 20  1  0  0  0  0
 17 22  1  0  0  0  0
 17 15  1  0  0  0  0
 18 15  1  0  0  0  0
 18 23  1  0  0  0  0
 18 25  1  0  0  0  0
 19 27  1  0  0  0  0
 19 15  1  0  0  0  0
 19 28  1  0  0  0  0
 21 17  1  0  0  0  0
 24 18  1  0  0  0  0
 26 19  1  0  0  0  0
 29 33  1  0  0  0  0
 29 31  1  0  0  0  0
 30 42  1  0  0  0  0
 30 40  1  0  0  0  0
 30 41  1  0  0  0  0
 32 29  1  0  0  0  0
 33 34  1  0  0  0  0
 35 33  1  0  0  0  0
 36 33  1  0  0  0  0
 36 38  1  0  0  0  0
 36 39  1  0  0  0  0
 37 36  1  0  0  0  0
 44 45  1  0  0  0  0
 46 44  1  0  0  0  0
 47 44  1  0  0  0  0
M  END
$$$$
