
  Mrv0541 03261423283D          

  5  4  0  0  0  0            999 V2000
   -0.0000    0.0000   -0.0000 Ru  0  0  0  0  0  0  0  0  0  0  0  0
   -0.0000   -2.0656    0.0000 C   0  0  0  0  0  0  0  0  0  0  0  0
   -0.0000    2.0656    0.0000 O   0  0  0  0  0  0  0  0  0  0  0  0
   -2.7535    0.0000    0.0000 S   0  0  0  0  0  0  0  0  0  0  0  0
    3.2604    0.0000    0.0000 N   0  0  0  0  0  0  0  0  0  0  0  0
  1  2  1  0  0  0  0
  1  3  1  0  0  0  0
  1  4  1  0  0  0  0
  1  5  1  0  0  0  0
M  END
$$$$
