
  CDK     01122311493D

  9  8  0  0  0  0  0  0  0  0999 V2000
    2.8449   -0.4400    0.0217 C   0  0  0  0  0  0  0  0  0  0  0  0
    1.7727    0.5029   -0.0372 O   0  0  0  0  0  0  0  0  0  0  0  0
    0.5244   -0.2703    0.0081 Mo  0  0  0  0  0  0  0  0  0  0  0  0
   -0.5733    0.6950   -0.0523 N   0  0  0  0  0  0  0  0  0  0  0  0
   -2.0247   -0.2076    0.0006 F   0  0  0  0  0  0  0  0  0  0  0  0
    3.7969    0.0900   -0.0092 Cl  0  0  0  0  0  0  0  0  0  0  0  0
    2.7765   -1.0104    0.9480 H   0  0  0  0  0  0  0  0  0  0  0  0
    2.7791   -1.1186   -0.8287 H   0  0  0  0  0  0  0  0  0  0  0  0
   -0.5345    1.2319    0.8011 H   0  0  0  0  0  0  0  0  0  0  0  0
  1  2  1  0  0  0  0
  2  3  1  0  0  0  0
  3  4  2  0  0  0  0
  4  5  1  0  0  0  0
  1  6  1  0  0  0  0
  1  7  1  0  0  0  0
  1  8  1  0  0  0  0
  4  9  1  0  0  0  0
M  END
$$$$
