
  Mrv0541 05261614443D          

 11 11  0  0  0  0            999 V2000
   -0.5381   -0.9357    0.0000 H   0  0  0  0  0  0  0  0  0  0  0  0
   -0.0424   -0.0442    0.0000 C   0  0  0  0  0  0  0  0  0  0  0  0
    1.3481   -0.0116    0.0000 N   0  0  0  0  0  0  0  0  0  0  0  0
    2.0906    1.1643    0.0000 C   0  0  0  0  0  0  0  0  0  0  0  0
    3.1099    1.1285    0.0000 H   0  0  0  0  0  0  0  0  0  0  0  0
    1.4109    2.4293    0.0000 C   0  0  0  0  0  0  0  0  0  0  0  0
    2.5299    4.3119    0.0000 He  0  0  0  0  0  0  0  0  0  0  0  0
   -0.0240    2.4219    0.0000 C   0  0  0  0  0  0  0  0  0  0  0  0
   -0.5270    3.3093    0.0000 H   0  0  0  0  0  0  0  0  0  0  0  0
   -0.7699    1.1905    0.0000 C   0  0  0  0  0  0  0  0  0  0  0  0
   -2.9599    1.2039    0.0000 He  0  0  0  0  0  0  0  0  0  0  0  0
  1  2  1  0  0  0  0
  2  3  2  0  0  0  0
  3  4  1  0  0  0  0
  4  5  1  0  0  0  0
  4  6  2  0  0  0  0
  6  7  1  0  0  0  0
  6  8  1  0  0  0  0
  8  9  1  0  0  0  0
  8 10  2  0  0  0  0
  2 10  1  0  0  0  0
 10 11  1  0  0  0  0
M  END
$$$$

  Mrv0541 05261614443D          

 32 33  0  0  0  0            999 V2000
    4.0424    0.5038    0.4773 H   0  0  0  0  0  0  0  0  0  0  0  0
    3.2048    0.9762    0.1313 N   0  0  1  0  0  0  0  0  0  0  0  0
    2.6529    0.2219   -1.0294 C   0  0  1  0  0  0  0  0  0  0  0  0
    2.7760    0.8117   -1.9377 H   0  0  0  0  0  0  0  0  0  0  0  0
    3.3173   -0.6165   -1.2387 H   0  0  0  0  0  0  0  0  0  0  0  0
    1.1747   -0.2894   -0.9350 C   0  0  1  0  0  0  0  0  0  0  0  0
    0.6977   -0.2038   -1.9113 H   0  0  0  0  0  0  0  0  0  0  0  0
    1.1671   -1.3550   -0.7058 H   0  0  0  0  0  0  0  0  0  0  0  0
    0.2612    0.3762    0.1538 C   0  0  1  0  0  0  0  0  0  0  0  0
   -0.6182    0.7018   -0.4018 H   0  0  0  0  0  0  0  0  0  0  0  0
   -0.3460   -0.6097    1.0995 N   0  0  0  0  0  0  0  0  0  0  0  0
    0.8597    1.6224    0.8921 C   0  0  2  0  0  0  0  0  0  0  0  0
    0.2781    1.8261    1.7911 H   0  0  0  0  0  0  0  0  0  0  0  0
    0.8469    2.4550    0.1888 H   0  0  0  0  0  0  0  0  0  0  0  0
    2.3437    1.3656    1.2817 C   0  0  1  0  0  0  0  0  0  0  0  0
    2.3895    0.5920    2.0481 H   0  0  0  0  0  0  0  0  0  0  0  0
    2.7799    2.2346    1.7744 H   0  0  0  0  0  0  0  0  0  0  0  0
   -1.5900   -2.8850    1.0224 C   0  0  2  0  0  0  0  0  0  0  0  0
   -1.4966   -1.4087    0.5211 C   0  0  1  0  0  0  0  0  0  0  0  0
    0.5977   -1.2854    2.0801 C   0  0  2  0  0  0  0  0  0  0  0  0
    1.0040   -2.7032    1.6005 C   0  0  2  0  0  0  0  0  0  0  0  0
   -0.2163   -3.6162    1.2446 C   0  0  1  0  0  0  0  0  0  0  0  0
   -2.2029   -3.4649    0.3324 H   0  0  0  0  0  0  0  0  0  0  0  0
   -2.0553   -2.8309    2.0066 H   0  0  0  0  0  0  0  0  0  0  0  0
   -2.4356   -0.8949    0.7272 H   0  0  0  0  0  0  0  0  0  0  0  0
   -1.3714   -1.3774   -0.5612 H   0  0  0  0  0  0  0  0  0  0  0  0
    0.1181   -1.3557    3.0564 H   0  0  0  0  0  0  0  0  0  0  0  0
    1.4998   -0.6880    2.2122 H   0  0  0  0  0  0  0  0  0  0  0  0
    1.6082   -3.1871    2.3679 H   0  0  0  0  0  0  0  0  0  0  0  0
    1.5643   -2.5655    0.6758 H   0  0  0  0  0  0  0  0  0  0  0  0
   -0.3324   -4.3825    2.0110 H   0  0  0  0  0  0  0  0  0  0  0  0
    0.0599   -4.1237    0.3204 H   0  0  0  0  0  0  0  0  0  0  0  0
  1  2  1  0  0  0  0
  2  3  1  0  0  0  0
  3  4  1  0  0  0  0
  3  5  1  0  0  0  0
  3  6  1  0  0  0  0
  6  7  1  0  0  0  0
  6  8  1  0  0  0  0
  6  9  1  0  0  0  0
  9 10  1  0  0  0  0
  9 11  1  0  0  0  0
  9 12  1  0  0  0  0
 12 13  1  0  0  0  0
 12 14  1  0  0  0  0
 12 15  1  0  0  0  0
  2 15  1  0  0  0  0
 15 16  1  0  0  0  0
 15 17  1  0  0  0  0
 18 19  1  0  0  0  0
 20 21  1  0  0  0  0
 21 22  1  0  0  0  0
 18 22  1  0  0  0  0
 19 11  1  0  0  0  0
 11 20  1  0  0  0  0
 18 23  1  0  0  0  0
 18 24  1  0  0  0  0
 19 25  1  0  0  0  0
 19 26  1  0  0  0  0
 20 27  1  0  0  0  0
 20 28  1  0  0  0  0
 21 29  1  0  0  0  0
 21 30  1  0  0  0  0
 22 31  1  0  0  0  0
 22 32  1  0  0  0  0
M  END
$$$$

  Mrv0541 05261614443D          

 17 16  0  0  0  0            999 V2000
   -1.8433    2.1307    0.0000 H   0  0  0  0  0  0  0  0  0  0  0  0
   -0.7533    2.1307    0.0000 C   0  0  0  0  0  0  0  0  0  0  0  0
   -0.3900    2.6446   -0.8900 H   0  0  0  0  0  0  0  0  0  0  0  0
   -0.3900    2.6446    0.8900 H   0  0  0  0  0  0  0  0  0  0  0  0
    0.0000    0.0000    0.0000 Pb  0  0  2  0  0  0  0  0  0  0  0  0
    2.2600    0.0000    0.0000 C   0  0  0  0  0  0  0  0  0  0  0  0
    2.6233   -1.0277    0.0000 H   0  0  0  0  0  0  0  0  0  0  0  0
    2.6233    0.5138   -0.8900 H   0  0  0  0  0  0  0  0  0  0  0  0
    2.6233    0.5138    0.8900 H   0  0  0  0  0  0  0  0  0  0  0  0
   -0.7533   -1.0654   -1.8453 C   0  0  0  0  0  0  0  0  0  0  0  0
   -0.3900   -2.0930   -1.8453 H   0  0  0  0  0  0  0  0  0  0  0  0
   -1.8433   -1.0654   -1.8453 H   0  0  0  0  0  0  0  0  0  0  0  0
   -0.3900   -0.5515   -2.7353 H   0  0  0  0  0  0  0  0  0  0  0  0
   -0.7533   -1.0654    1.8453 C   0  0  0  0  0  0  0  0  0  0  0  0
   -0.3900   -2.0930    1.8453 H   0  0  0  0  0  0  0  0  0  0  0  0
   -1.8433   -1.0654    1.8453 H   0  0  0  0  0  0  0  0  0  0  0  0
   -0.3900   -0.5515    2.7353 H   0  0  0  0  0  0  0  0  0  0  0  0
  1  2  1  0  0  0  0
  2  3  1  0  0  0  0
  2  4  1  0  0  0  0
  2  5  1  0  0  0  0
  5  6  1  0  0  0  0
  6  7  1  0  0  0  0
  6  8  1  0  0  0  0
  6  9  1  0  0  0  0
  5 10  1  0  0  0  0
 10 11  1  0  0  0  0
 10 12  1  0  0  0  0
 10 13  1  0  0  0  0
  5 14  1  0  0  0  0
 14 15  1  0  0  0  0
 14 16  1  0  0  0  0
 14 17  1  0  0  0  0
M  END
$$$$
