i
 OpenBabel10171621093D

 87 93  0  0  0  0  0  0  0  0999 V2000
   -0.1085    1.3428   -0.6890 C   0  0  2  0  0  0  0  0  0  0  0  0
    0.5688   -0.3791   -1.5065 Ru  0  0  0  0  0  0  0  0  0  0  0  0
   -7.1838    0.2759   -1.3583 H   0  0  0  0  0  0  0  0  0  0  0  0
    0.9916    1.2326   -3.2801 Cl  0  0  0  0  0  0  0  0  0  0  0  0
    0.4608   -1.8048    0.3881 Cl  0  0  0  0  0  0  0  0  0  0  0  0
   -1.4033   -0.9153   -1.9417 C   0  0  0  0  0  0  0  0  0  0  0  0
   -1.8824   -0.0925   -2.4750 H   0  0  0  0  0  0  0  0  0  0  0  0
   -1.9532   -1.1687   -1.0306 H   0  0  0  0  0  0  0  0  0  0  0  0
   -1.2478    2.0602   -0.6718 N   0  0  0  0  0  0  0  0  0  0  0  0
    0.8204    2.0264    0.0204 N   0  0  0  0  0  0  0  0  0  0  0  0
   -2.5693    1.6398   -1.0242 C   0  0  0  0  0  0  0  0  0  0  0  0
   -1.0726    3.3699   -0.0318 C   0  0  0  0  0  0  0  0  0  0  0  0
    0.2886    3.2366    0.6453 C   0  0  0  0  0  0  0  0  0  0  0  0
    2.1214    1.5435    0.3883 C   0  0  0  0  0  0  0  0  0  0  0  0
    0.9536    4.0881    0.4472 H   0  0  0  0  0  0  0  0  0  0  0  0
    0.2119    3.1000    1.7366 H   0  0  0  0  0  0  0  0  0  0  0  0
   -1.8933    3.5562    0.6739 H   0  0  0  0  0  0  0  0  0  0  0  0
   -1.0829    4.1621   -0.7965 H   0  0  0  0  0  0  0  0  0  0  0  0
   -5.0928    0.6904   -1.7275 C   0  0  0  0  0  0  0  0  0  0  0  0
   -3.2709    0.8322   -0.1166 C   0  0  0  0  0  0  0  0  0  0  0  0
   -3.1250    2.0401   -2.2437 C   0  0  0  0  0  0  0  0  0  0  0  0
   -4.3905    1.5479   -2.5751 C   0  0  0  0  0  0  0  0  0  0  0  0
   -4.5269    0.3629   -0.4927 C   0  0  0  0  0  0  0  0  0  0  0  0
   -2.6546    0.4176    1.1927 C   0  0  0  0  0  0  0  0  0  0  0  0
   -2.3552    2.9138   -3.1969 C   0  0  0  0  0  0  0  0  0  0  0  0
   -4.8257    1.8241   -3.5390 H   0  0  0  0  0  0  0  0  0  0  0  0
   -5.0674   -0.3043    0.1833 H   0  0  0  0  0  0  0  0  0  0  0  0
   -6.4182    0.0985   -2.1291 C   0  0  0  0  0  0  0  0  0  0  0  0
    4.6431    0.6064    1.1572 C   0  0  0  0  0  0  0  0  0  0  0  0
    2.2501    0.7955    1.5781 C   0  0  0  0  0  0  0  0  0  0  0  0
    3.2489    1.9182   -0.3590 C   0  0  0  0  0  0  0  0  0  0  0  0
    4.4941    1.4228    0.0411 C   0  0  0  0  0  0  0  0  0  0  0  0
    3.5108    0.3207    1.9251 C   0  0  0  0  0  0  0  0  0  0  0  0
    1.0936    0.5720    2.5156 C   0  0  0  0  0  0  0  0  0  0  0  0
    3.1934    2.8630   -1.5272 C   0  0  0  0  0  0  0  0  0  0  0  0
    5.3724    1.6908   -0.5515 H   0  0  0  0  0  0  0  0  0  0  0  0
    3.6126   -0.2851    2.8294 H   0  0  0  0  0  0  0  0  0  0  0  0
    5.9863    0.0446    1.5430 C   0  0  0  0  0  0  0  0  0  0  0  0
    6.2248    0.2660    2.5944 H   0  0  0  0  0  0  0  0  0  0  0  0
    3.4810    2.3442   -2.4528 H   0  0  0  0  0  0  0  0  0  0  0  0
   -6.3229   -0.9922   -2.2532 H   0  0  0  0  0  0  0  0  0  0  0  0
   -6.7812    0.5211   -3.0762 H   0  0  0  0  0  0  0  0  0  0  0  0
    3.8974    3.6934   -1.3614 H   0  0  0  0  0  0  0  0  0  0  0  0
    2.1886    3.2650   -1.6938 H   0  0  0  0  0  0  0  0  0  0  0  0
    6.7909    0.4542    0.9164 H   0  0  0  0  0  0  0  0  0  0  0  0
    1.1848   -0.3993    3.0184 H   0  0  0  0  0  0  0  0  0  0  0  0
    0.1271    0.5821    2.0010 H   0  0  0  0  0  0  0  0  0  0  0  0
    1.0868    1.3567    3.2917 H   0  0  0  0  0  0  0  0  0  0  0  0
    5.9952   -1.0519    1.4333 H   0  0  0  0  0  0  0  0  0  0  0  0
   -3.3959   -0.0813    1.8309 H   0  0  0  0  0  0  0  0  0  0  0  0
   -2.2568    1.2819    1.7481 H   0  0  0  0  0  0  0  0  0  0  0  0
   -1.8175   -0.2828    1.0341 H   0  0  0  0  0  0  0  0  0  0  0  0
   -2.8606    2.9682   -4.1704 H   0  0  0  0  0  0  0  0  0  0  0  0
   -1.3357    2.5265   -3.3509 H   0  0  0  0  0  0  0  0  0  0  0  0
   -2.2679    3.9437   -2.8134 H   0  0  0  0  0  0  0  0  0  0  0  0
    0.2647   -1.5583   -3.1653 C   0  0  1  0  0  0  0  0  0  0  0  0
    1.4826   -2.4361   -2.8423 C   0  0  0  0  0  0  0  0  0  0  0  0
   -1.1375   -2.0682   -2.8937 C   0  0  1  0  0  0  0  0  0  0  0  0
   -1.7663   -2.0120   -3.7980 H   0  0  0  0  0  0  0  0  0  0  0  0
    1.3632   -3.5713   -3.8400 C   0  0  0  0  0  0  0  0  0  0  0  0
    0.3754   -1.0307   -4.1171 H   0  0  0  0  0  0  0  0  0  0  0  0
    1.3906   -2.9197   -1.8590 H   0  0  0  0  0  0  0  0  0  0  0  0
   -1.3195   -3.4602   -2.2712 C   0  0  0  0  0  0  0  0  0  0  0  0
   -1.0652   -4.2363   -3.0116 H   0  0  0  0  0  0  0  0  0  0  0  0
   -0.6485   -3.5826   -1.4097 H   0  0  0  0  0  0  0  0  0  0  0  0
   -2.7484   -3.6243   -1.8076 C   0  0  0  0  0  0  0  0  0  0  0  0
   -3.0839   -3.4411   -0.4612 C   0  0  0  0  0  0  0  0  0  0  0  0
   -3.7783   -3.8676   -2.7227 C   0  0  0  0  0  0  0  0  0  0  0  0
   -4.4131   -3.4884   -0.0434 C   0  0  0  0  0  0  0  0  0  0  0  0
   -2.2878   -3.2432    0.2610 H   0  0  0  0  0  0  0  0  0  0  0  0
   -5.1083   -3.9174   -2.3094 C   0  0  0  0  0  0  0  0  0  0  0  0
   -3.5345   -4.0158   -3.7783 H   0  0  0  0  0  0  0  0  0  0  0  0
   -5.4315   -3.7228   -0.9663 C   0  0  0  0  0  0  0  0  0  0  0  0
   -4.6539   -3.3419    1.0119 H   0  0  0  0  0  0  0  0  0  0  0  0
   -5.8972   -4.1111   -3.0394 H   0  0  0  0  0  0  0  0  0  0  0  0
   -6.4728   -3.7617   -0.6402 H   0  0  0  0  0  0  0  0  0  0  0  0
    2.4794   -1.9650   -2.9359 H   0  0  0  0  0  0  0  0  0  0  0  0
    1.2000   -3.2913   -5.2045 C   0  0  0  0  0  0  0  0  0  0  0  0
    1.4160   -4.9014   -3.3985 C   0  0  0  0  0  0  0  0  0  0  0  0
    1.1593   -2.2671   -5.5445 H   0  0  0  0  0  0  0  0  0  0  0  0
    1.0895   -4.3415   -6.1275 C   0  0  0  0  0  0  0  0  0  0  0  0
    1.5418   -5.1170   -2.3477 H   0  0  0  0  0  0  0  0  0  0  0  0
    1.3056   -5.9515   -4.3215 C   0  0  0  0  0  0  0  0  0  0  0  0
    1.1423   -5.6716   -5.6860 C   0  0  0  0  0  0  0  0  0  0  0  0
    1.3463   -6.9758   -3.9815 H   0  0  0  0  0  0  0  0  0  0  0  0
    0.9638   -4.1259   -7.1782 H   0  0  0  0  0  0  0  0  0  0  0  0
    1.0573   -6.4802   -6.3967 H   0  0  0  0  0  0  0  0  0  0  0  0
  1  2  1  6  0  0  0
  1  9  1  0  0  0  0
  1 10  1  0  0  0  0
  2  5  1  0  0  0  0
  4  2  1  0  0  0  0
  6  2  1  0  0  0  0
  6  8  1  0  0  0  0
  7  6  1  0  0  0  0
  9 12  1  0  0  0  0
 10 14  1  0  0  0  0
 10 13  1  0  0  0  0
 11  9  1  0  0  0  0
 11 20  2  0  0  0  0
 12 13  1  0  0  0  0
 12 17  1  0  0  0  0
 13 16  1  0  0  0  0
 14 30  2  0  0  0  0
 15 13  1  0  0  0  0
 18 12  1  0  0  0  0
 19 23  2  0  0  0  0
 20 24  1  0  0  0  0
 21 11  1  0  0  0  0
 22 21  2  0  0  0  0
 22 19  1  0  0  0  0
 23 20  1  0  0  0  0
 23 27  1  0  0  0  0
 24 51  1  0  0  0  0
 24 50  1  0  0  0  0
 25 55  1  0  0  0  0
 25 21  1  0  0  0  0
 26 22  1  0  0  0  0
 28 19  1  0  0  0  0
 28  3  1  0  0  0  0
 29 38  1  0  0  0  0
 29 33  2  0  0  0  0
 30 33  1  0  0  0  0
 30 34  1  0  0  0  0
 31 32  2  0  0  0  0
 31 14  1  0  0  0  0
 32 29  1  0  0  0  0
 33 37  1  0  0  0  0
 34 46  1  0  0  0  0
 34 48  1  0  0  0  0
 35 43  1  0  0  0  0
 35 31  1  0  0  0  0
 36 32  1  0  0  0  0
 38 39  1  0  0  0  0
 40 35  1  0  0  0  0
 41 28  1  0  0  0  0
 42 28  1  0  0  0  0
 44 35  1  0  0  0  0
 45 38  1  0  0  0  0
 47 34  1  0  0  0  0
 49 38  1  0  0  0  0
 52 24  1  0  0  0  0
 53 25  1  0  0  0  0
 54 25  1  0  0  0  0
 56 61  1  6  0  0  0
 56 58  1  0  0  0  0
 56 57  1  0  0  0  0
 56  2  1  0  0  0  0
 57 62  1  0  0  0  0
 58 59  1  6  0  0  0
 58 63  1  0  0  0  0
 58  6  1  0  0  0  0
 60 79  1  0  0  0  0
 60 57  1  0  0  0  0
 63 66  1  0  0  0  0
 63 65  1  0  0  0  0
 64 63  1  0  0  0  0
 66 67  2  0  0  0  0
 67 69  1  0  0  0  0
 67 70  1  0  0  0  0
 68 71  2  0  0  0  0
 68 66  1  0  0  0  0
 69 74  1  0  0  0  0
 71 73  1  0  0  0  0
 72 68  1  0  0  0  0
 73 76  1  0  0  0  0
 73 69  2  0  0  0  0
 75 71  1  0  0  0  0
 77 57  1  0  0  0  0
 78 60  2  0  0  0  0
 79 82  1  0  0  0  0
 80 78  1  0  0  0  0
 81 84  2  0  0  0  0
 81 78  1  0  0  0  0
 83 85  1  0  0  0  0
 83 79  2  0  0  0  0
 84 83  1  0  0  0  0
 86 81  1  0  0  0  0
 87 84  1  0  0  0  0
  2 77  1  0  0  0  0
M  END
$$$$
