M0001
  Spartan 11291610043D

  9  8  0  0  0  0  0  0  0  0999 V2000
    0.2000    0.0000    1.0900 C   0  0  0  0  0  0  0  0  0  0  0  0
    1.0277    0.0000    1.4533 H   0  0  0  0  0  0  0  0  0  0  0  0
   -0.5138    0.8900    1.4533 H   0  0  0  0  0  0  0  0  0  0  0  0
    0.4000   -0.2000   -0.4410 C   0  0  0  0  0  0  0  0  0  0  0  0
    0.5167   -0.8949   -0.8063 H   0  0  0  0  0  0  0  0  0  0  0  0
   -1.0333    0.0000   -0.8063 H   0  0  0  0  0  0  0  0  0  0  0  0
   -0.6520   -1.1292    1.5510 F   0  0  0  0  0  0  0  0  0  0  0  0
    0.6647    1.1513   -0.9110 O   0  0  0  0  0  0  0  0  0  0  0  0
    0.6273    1.0866   -1.8661 H   0  0  0  0  0  0  0  0  0  0  0  0
  1  2  1  0  0  0  0
  1  3  1  0  0  0  0
  4  5  1  0  0  0  0
  4  6  1  0  0  0  0
  1  4  1  0  0  0  0
  1  7  1  0  0  0  0
  8  9  1  0  0  0  0
  4  8  1  0  0  0  0
M  END
$$$$
