mol_1
 OpenBabel10061717113D

 18 17  0  0  1  0  0  0  0  0999 V2000
    0.0000   -0.0000    0.0000 C   0  0  0  0  0  0  0  0  0  0  0  0
    1.5244    0.0000   -0.0000 C   0  0  1  0  0  0  0  0  0  0  0  0
   -0.3638    1.0275   -0.0000 H   0  0  0  0  0  0  0  0  0  0  0  0
   -0.3631   -0.5137   -0.8901 H   0  0  0  0  0  0  0  0  0  0  0  0
   -0.3633   -0.5141    0.8898 H   0  0  0  0  0  0  0  0  0  0  0  0
    2.0076   -1.3646    0.0000 N   0  0  0  0  0  0  0  0  0  0  0  0
    1.8875    0.5137    0.8901 H   0  0  0  0  0  0  0  0  0  0  0  0
    2.0325    0.7190   -1.2444 C   0  0  2  0  0  0  0  0  0  0  0  0
    3.5569    0.7194   -1.2451 C   0  0  0  0  0  0  0  0  0  0  0  0
    1.5633    2.0461   -1.2436 O   0  0  0  0  0  0  0  0  0  0  0  0
    1.6689    0.2056   -2.1346 H   0  0  0  0  0  0  0  0  0  0  0  0
    1.8830    2.4995   -2.0271 H   0  0  0  0  0  0  0  0  0  0  0  0
    3.0007   -1.5486    0.0000 H   0  0  0  0  0  0  0  0  0  0  0  0
    1.3517   -2.1326    0.0000 H   0  0  0  0  0  0  0  0  0  0  0  0
    4.2579    1.9341   -1.2454 C   0  0  0  0  0  0  0  0  0  0  0  0
    4.0972   -0.2158   -1.2453 H   0  0  0  0  0  0  0  0  0  0  0  0
    3.7176    2.8693   -1.2452 H   0  0  0  0  0  0  0  0  0  0  0  0
    5.3379    1.9344   -1.2459 H   0  0  0  0  0  0  0  0  0  0  0  0
  2  1  1  0  0  0  0
  2  7  1  1  0  0  0
  3  1  1  0  0  0  0
  4  1  1  0  0  0  0
  5  1  1  0  0  0  0
  6  2  1  0  0  0  0
  8  2  1  0  0  0  0
  8 11  1  6  0  0  0
  9  8  1  0  0  0  0
 10  8  1  0  0  0  0
 12 10  1  0  0  0  0
 13  6  1  0  0  0  0
 14  6  1  0  0  0  0
 15  9  2  0  0  0  0
 16  9  1  0  0  0  0
 17 15  1  0  0  0  0
 18 15  1  0  0  0  0
M  END
$$$$
mol_2
 OpenBabel10061717113D

 18 17  0  0  1  0  0  0  0  0999 V2000
    0.6723   -1.1938   -0.4152 C   0  0  0  0  0  0  0  0  0  0  0  0
    1.5244    0.0000    0.0000 C   0  0  1  0  0  0  0  0  0  0  0  0
   -0.1755   -0.8477   -1.0065 H   0  0  0  0  0  0  0  0  0  0  0  0
    1.2744   -1.8800   -1.0109 H   0  0  0  0  0  0  0  0  0  0  0  0
    0.3090   -1.7080    0.4746 H   0  0  0  0  0  0  0  0  0  0  0  0
    2.6503   -0.4597    0.7852 N   0  0  0  0  0  0  0  0  0  0  0  0
    0.9223    0.6861    0.5957 H   0  0  0  0  0  0  0  0  0  0  0  0
    2.0325    0.7190   -1.2444 C   0  0  2  0  0  0  0  0  0  0  0  0
    4.3825    0.7196   -1.2455 C   0  0  0  0  0  0  0  0  0  0  0  0
    1.2725    2.8686   -1.2431 O   0  0  0  0  0  0  0  0  0  0  0  0
    1.6689    0.2056   -2.1346 H   0  0  0  0  0  0  0  0  0  0  0  0
    1.5922    3.3220   -2.0266 H   0  0  0  0  0  0  0  0  0  0  0  0
    2.7973   -0.0986    1.7169 H   0  0  0  0  0  0  0  0  0  0  0  0
    3.2889   -1.1416    0.4013 H   0  0  0  0  0  0  0  0  0  0  0  0
    5.5611    1.4240   -0.9596 C   0  0  0  0  0  0  0  0  0  0  0  0
    4.9226   -0.1467   -1.5981 H   0  0  0  0  0  0  0  0  0  0  0  0
    6.0573    2.3126   -0.5983 H   0  0  0  0  0  0  0  0  0  0  0  0
    6.5218    0.9673   -1.1459 H   0  0  0  0  0  0  0  0  0  0  0  0
  2  1  1  0  0  0  0
  2  7  1  1  0  0  0
  3  1  1  0  0  0  0
  4  1  1  0  0  0  0
  5  1  1  0  0  0  0
  6  2  1  0  0  0  0
  8  2  1  0  0  0  0
  8 11  1  6  0  0  0
  9  8  1  0  0  0  0
 10  8  1  0  0  0  0
 12 10  1  0  0  0  0
 13  6  1  0  0  0  0
 14  6  1  0  0  0  0
 15  9  2  0  0  0  0
 16  9  1  0  0  0  0
 17 15  1  0  0  0  0
 18 15  1  0  0  0  0
M  END
$$$$
