TS_6Me_g09opt
 OpenBabel04151609203D

 79 82  0  0  0  0  0  0  0  0999 V2000
    0.2984   -0.0841    0.1507 C   0  0  0  0  0  0  0  0  0  0  0  0
    0.1071    1.2903    0.0069 C   0  0  0  0  0  0  0  0  0  0  0  0
   -0.2877    2.0896    1.0828 C   0  0  0  0  0  0  0  0  0  0  0  0
   -0.5770    1.4667    2.2895 C   0  0  0  0  0  0  0  0  0  0  0  0
   -0.4575    0.0915    2.4515 C   0  0  0  0  0  0  0  0  0  0  0  0
   -0.0011   -0.6611    1.3796 C   0  0  0  0  0  0  0  0  0  0  0  0
    0.3917    1.9097   -1.2492 N   0  0  0  0  0  0  0  0  0  0  0  0
   -0.5000    2.2503   -2.1811 C   0  0  0  0  0  0  0  0  0  0  0  0
    0.1481    2.7488   -3.2369 N   0  0  0  0  0  0  0  0  0  0  0  0
    1.6034    2.7430   -3.0693 C   0  0  0  0  0  0  0  0  0  0  0  0
    1.7701    2.2214   -1.6389 C   0  0  0  0  0  0  0  0  0  0  0  0
   -0.4689    3.3197   -4.3952 C   0  0  0  0  0  0  0  0  0  0  0  0
   -0.8250    2.4906   -5.4623 C   0  0  0  0  0  0  0  0  0  0  0  0
   -1.4673    3.0673   -6.5508 C   0  0  0  0  0  0  0  0  0  0  0  0
   -1.7294    4.4298   -6.6097 C   0  0  0  0  0  0  0  0  0  0  0  0
   -1.2881    5.2327   -5.5676 C   0  0  0  0  0  0  0  0  0  0  0  0
   -0.6426    4.7041   -4.4578 C   0  0  0  0  0  0  0  0  0  0  0  0
   -0.4929    1.0257   -5.4667 C   0  0  0  0  0  0  0  0  0  0  0  0
   -0.1025    5.6250   -3.3997 C   0  0  0  0  0  0  0  0  0  0  0  0
   -2.4883    5.0177   -7.7677 C   0  0  0  0  0  0  0  0  0  0  0  0
   -2.5641    2.0104   -2.0910 Ru  0  0  0  0  0  0  0  0  0  0  0  0
   -2.6439    4.4160   -1.6662 Cl  0  0  0  0  0  0  0  0  0  0  0  0
   -0.3753    3.5833    0.9539 C   0  0  0  0  0  0  0  0  0  0  0  0
   -0.8329   -0.5640    3.7526 C   0  0  0  0  0  0  0  0  0  0  0  0
    0.8600   -0.9340   -0.9545 C   0  0  0  0  0  0  0  0  0  0  0  0
   -3.5373    1.5550   -0.5232 Si  0  0  0  0  0  0  0  0  0  0  0  0
   -4.2158    2.0558   -3.3698 C   0  0  0  0  0  0  0  0  0  0  0  0
   -4.8743    1.7217   -2.0831 C   0  0  0  0  0  0  0  0  0  0  0  0
   -2.0260   -0.3206   -2.6150 Cl  0  0  0  0  0  0  0  0  0  0  0  0
    2.0010    3.7482   -3.1984 H   0  0  0  0  0  0  0  0  0  0  0  0
    2.0633    2.0904   -3.8115 H   0  0  0  0  0  0  0  0  0  0  0  0
    2.3876    1.3265   -1.5892 H   0  0  0  0  0  0  0  0  0  0  0  0
    2.1884    2.9682   -0.9635 H   0  0  0  0  0  0  0  0  0  0  0  0
   -1.4543    6.3018   -5.6120 H   0  0  0  0  0  0  0  0  0  0  0  0
   -1.7629    2.4328   -7.3772 H   0  0  0  0  0  0  0  0  0  0  0  0
    0.1223   -1.7309    1.4948 H   0  0  0  0  0  0  0  0  0  0  0  0
   -0.8947    2.0749    3.1277 H   0  0  0  0  0  0  0  0  0  0  0  0
    0.9068    5.9482   -3.6682 H   0  0  0  0  0  0  0  0  0  0  0  0
   -0.7264    6.5113   -3.3130 H   0  0  0  0  0  0  0  0  0  0  0  0
   -0.0769    5.1505   -2.4236 H   0  0  0  0  0  0  0  0  0  0  0  0
   -2.1946    6.0502   -7.9510 H   0  0  0  0  0  0  0  0  0  0  0  0
   -2.3250    4.4457   -8.6800 H   0  0  0  0  0  0  0  0  0  0  0  0
   -3.5600    5.0107   -7.5598 H   0  0  0  0  0  0  0  0  0  0  0  0
   -0.7424    0.5852   -6.4299 H   0  0  0  0  0  0  0  0  0  0  0  0
    0.5730    0.8688   -5.2932 H   0  0  0  0  0  0  0  0  0  0  0  0
   -1.0285    0.4829   -4.6885 H   0  0  0  0  0  0  0  0  0  0  0  0
    0.4579   -1.9431   -0.8992 H   0  0  0  0  0  0  0  0  0  0  0  0
    0.6094   -0.5383   -1.9340 H   0  0  0  0  0  0  0  0  0  0  0  0
    1.9468   -1.0016   -0.8598 H   0  0  0  0  0  0  0  0  0  0  0  0
   -1.8992   -0.7976    3.7673 H   0  0  0  0  0  0  0  0  0  0  0  0
   -0.2888   -1.4959    3.8983 H   0  0  0  0  0  0  0  0  0  0  0  0
   -0.6275    0.0902    4.5988 H   0  0  0  0  0  0  0  0  0  0  0  0
    0.5664    3.9990    0.5916 H   0  0  0  0  0  0  0  0  0  0  0  0
   -1.1501    3.8867    0.2493 H   0  0  0  0  0  0  0  0  0  0  0  0
   -0.5908    4.0361    1.9197 H   0  0  0  0  0  0  0  0  0  0  0  0
   -4.4813    3.4107   -4.0090 C   0  0  0  0  0  0  0  0  0  0  0  0
   -4.5435    4.2331   -3.3116 H   0  0  0  0  0  0  0  0  0  0  0  0
   -5.4176    3.3464   -4.5740 H   0  0  0  0  0  0  0  0  0  0  0  0
   -3.6869    3.6402   -4.7196 H   0  0  0  0  0  0  0  0  0  0  0  0
   -5.8253    2.7882   -1.5611 C   0  0  0  0  0  0  0  0  0  0  0  0
   -5.3466    3.7519   -1.4239 H   0  0  0  0  0  0  0  0  0  0  0  0
   -6.2784    2.4843   -0.6198 H   0  0  0  0  0  0  0  0  0  0  0  0
   -6.6306    2.9102   -2.2890 H   0  0  0  0  0  0  0  0  0  0  0  0
   -5.5291    0.3495   -2.0396 C   0  0  0  0  0  0  0  0  0  0  0  0
   -4.8443   -0.4543   -2.2880 H   0  0  0  0  0  0  0  0  0  0  0  0
   -6.3430    0.3385   -2.7682 H   0  0  0  0  0  0  0  0  0  0  0  0
   -5.9616    0.1506   -1.0611 H   0  0  0  0  0  0  0  0  0  0  0  0
   -4.2119    1.0122   -4.4774 C   0  0  0  0  0  0  0  0  0  0  0  0
   -3.9782    0.0092   -4.1508 H   0  0  0  0  0  0  0  0  0  0  0  0
   -3.4872    1.2960   -5.2401 H   0  0  0  0  0  0  0  0  0  0  0  0
   -5.1986    1.0138   -4.9530 H   0  0  0  0  0  0  0  0  0  0  0  0
   -3.8821    2.5456    0.5654 C   0  0  0  0  0  0  0  0  0  0  0  0
   -3.0779    2.4806    1.3018 H   0  0  0  0  0  0  0  0  0  0  0  0
   -4.7989    2.2430    1.0766 H   0  0  0  0  0  0  0  0  0  0  0  0
   -3.9548    3.5720    0.2375 H   0  0  0  0  0  0  0  0  0  0  0  0
   -3.5457    0.1662    0.0719 C   0  0  0  0  0  0  0  0  0  0  0  0
   -2.6616    0.1067    0.7113 H   0  0  0  0  0  0  0  0  0  0  0  0
   -3.4743   -0.6353   -0.6479 H   0  0  0  0  0  0  0  0  0  0  0  0
   -4.4196    0.0286    0.7133 H   0  0  0  0  0  0  0  0  0  0  0  0
  1  6  1  0  0  0  0
  2  1  2  0  0  0  0
  2  3  1  0  0  0  0
  3  4  2  0  0  0  0
  4  5  1  0  0  0  0
  4 37  1  0  0  0  0
  5 24  1  0  0  0  0
  6 36  1  0  0  0  0
  6  5  2  0  0  0  0
  7  2  1  0  0  0  0
  8 21  1  0  0  0  0
  8  7  1  0  0  0  0
  9 10  1  0  0  0  0
  9  8  1  0  0  0  0
 10 11  1  0  0  0  0
 11 32  1  0  0  0  0
 11  7  1  0  0  0  0
 11 33  1  0  0  0  0
 12  9  1  0  0  0  0
 13 12  2  0  0  0  0
 14 13  1  0  0  0  0
 15 14  2  0  0  0  0
 15 16  1  0  0  0  0
 16 17  2  0  0  0  0
 17 12  1  0  0  0  0
 17 19  1  0  0  0  0
 18 13  1  0  0  0  0
 18 45  1  0  0  0  0
 18 46  1  0  0  0  0
 19 39  1  0  0  0  0
 19 40  1  0  0  0  0
 20 43  1  0  0  0  0
 20 15  1  0  0  0  0
 21 26  1  0  0  0  0
 23  3  1  0  0  0  0
 23 55  1  0  0  0  0
 24 50  1  0  0  0  0
 24 51  1  0  0  0  0
 24 52  1  0  0  0  0
 25 47  1  0  0  0  0
 25 49  1  0  0  0  0
 25  1  1  0  0  0  0
 26 76  1  0  0  0  0
 26 72  1  0  0  0  0
 27 21  1  0  0  0  0
 27 28  1  0  0  0  0
 28 64  1  0  0  0  0
 28 60  1  0  0  0  0
 30 10  1  0  0  0  0
 31 10  1  0  0  0  0
 34 16  1  0  0  0  0
 35 14  1  0  0  0  0
 38 19  1  0  0  0  0
 41 20  1  0  0  0  0
 42 20  1  0  0  0  0
 44 18  1  0  0  0  0
 48 25  1  0  0  0  0
 53 23  1  0  0  0  0
 54 23  1  0  0  0  0
 56 27  1  0  0  0  0
 56 57  1  0  0  0  0
 58 56  1  0  0  0  0
 59 56  1  0  0  0  0
 60 61  1  0  0  0  0
 60 62  1  0  0  0  0
 63 60  1  0  0  0  0
 64 67  1  0  0  0  0
 65 64  1  0  0  0  0
 66 64  1  0  0  0  0
 68 69  1  0  0  0  0
 68 27  1  0  0  0  0
 70 68  1  0  0  0  0
 71 68  1  0  0  0  0
 72 74  1  0  0  0  0
 72 73  1  0  0  0  0
 75 72  1  0  0  0  0
 76 77  1  0  0  0  0
 76 79  1  0  0  0  0
 78 76  1  0  0  0  0
 21 22  1  0  0  0  0
 21 29  1  0  0  0  0
 26 28  1  0  0  0  0
M  END
$$$$
