 energy: -21.621281660016 gnorm: 0.114939874766 xtb: 6.7.1 (edcfbbe)
          06242522393D

  8  0  0     0  0            999 V2000
   -0.4878   -0.0002   -0.5308 Ru  0  0  0  0  0  0  0  0  0  0  0  0
   -0.4878   -0.0002    1.2507 C   0  0  0  0  0  0  0  0  0  0  0  0
    0.3219    0.0006    1.9894 H   0  0  0  0  0  0  0  0  0  0  0  0
   -1.5197    0.0009    1.6653 H   0  0  0  0  0  0  0  0  0  0  0  0
    1.4493   -0.0002   -1.0528 C   0  0  0  0  0  0  0  0  0  0  0  0
    2.5731   -0.0002   -1.3051 O   0  0  0  0  0  0  0  0  0  0  0  0
   -0.9234   -2.2241   -1.0091 Cl  0  0  0  0  0  0  0  0  0  0  0  0
   -0.9257    2.2236   -1.0074 Cl  0  0  0  0  0  0  0  0  0  0  0  0
M  END
$$$$
